%chk=UHIYOBOB_PN_Ni_gaussain.chk
%nprocshared=32
%mem=64GB
#p opt rwb97xd/gen pseudo=read

This Gaussian input file was generated using the DART python program. This file was generated on the 2023-08-13 at 16:51:13

0 1
Ni  0.0  0.0  0.0 
P  1.3946113643234095  1.4612183760478792  4.95712554870771e-16 
N  1.3946113643234095  -1.4612183760478792  -5.551115123125783e-16 
N  2.690501584282157  1.0428353711383043  1.0352066745428954 
C  1.0449966552246905  -2.496243078577658  -0.791157942723816 
H  0.12400570656744891  -2.6188892880270016  -0.9888061144815177 
C  1.952217912079756  -3.388743553781966  -1.3331141613157054 
H  1.6570118626031394  -4.106221093200515  -1.8809487246487655 
C  3.2974283173624626  -3.216384384797804  -1.0607205263198076 
H  3.9468302689739714  -3.8050070431894323  -1.4268840024764793 
C  3.6732572993537818  -2.168283556677764  -0.24167644301935381 
H  4.59122100483272  -2.031947733596469  -0.038202442792900665 
C  2.71595786266321  -1.3139450536427488  0.28155519855426975 
C  3.1457633029894376  -0.14722731456598614  1.1341584889476444 
C  4.231733440606719  -0.38177276007766436  2.1364763996891676 
C  4.4296088360519015  -1.6311400619984422  2.729161647327932 
H  3.9052579867861703  -2.3752301260316737  2.4573184140457154 
C  5.398103671917109  -1.785438371337945  3.7209800050111244 
H  5.521353713984865  -2.63168477794588  4.135313212023846 
C  6.17521066756302  -0.7089195697782948  4.103036463151506 
H  6.842902310134022  -0.819911176274957  4.770120501131877 
C  5.9850545354161735  0.5342551088164114  3.5140301271007797 
H  6.523886705473867  1.270789265956477  3.7779046955549602 
C  5.017726812852768  0.702661548971895  2.5461908955780514 
H  4.88348070420051  1.558066552418858  2.154148866721921 
C  1.3212471024788217  3.25714994795826  0.2758902392247898 
C  2.048149761743053  3.897805937743956  1.2768651523501569 
H  2.6205493253977137  3.3925423528464926  1.8418828063261397 
C  1.9375701870628574  5.278345895403167  1.4540743027060228 
H  2.4274564432778183  5.70878963694792  2.1452800834520045 
C  1.1115494074727192  6.020568151691343  0.6198750615436803 
H  1.0452074397709816  6.961354623127669  0.7310838673274491 
C  0.384808934058263  5.386416323197203  -0.37292736226425105 
H  -0.1770926618994959  5.896534976383082  -0.9446211667889859 
C  0.4709945590607594  4.011692207399346  -0.538902581760207 
H  -0.04855688742948905  3.5823217277473423  -1.208466167727451 
C  2.122337167482398  1.3675189145270679  -1.6732809167403375 
C  3.3960046168308735  1.8506005685569034  -1.9368348656957384 
H  3.9199018457378325  2.2140204643812913  -1.232539094827695 
C  3.9082363611674524  1.8051791681092095  -3.2233863945803276 
H  4.784292363045484  2.1295574046339802  -3.399314707374306 
C  3.1422880542550855  1.2860116826497041  -4.2538955372761755 
H  3.488070258796188  1.2694291954614876  -5.137717531877684 
C  1.8839311722266172  0.7943999346898205  -3.998887583048408 
H  1.3658593110904085  0.42768965798957526  -4.705511117655971 
C  1.3657197984736047  0.8311033089965787  -2.7077556554641125 
H  0.4967177689981166  0.4897630013630139  -2.533518382895588 
Br  -1.5839191898578664  1.5839191898578664  0.0 
C  -1.2937473829822488  -1.2398794889499034  -0.4598005675376139 
C  -1.601562203225019  -1.4938654694550033  -1.7919791134336869 
H  -1.1309417375171225  -1.0428217585005106  -2.480879663633267 
C  -2.60218398542082  -2.411889969420291  -2.121542410022959 
H  -2.8231586547736818  -2.5626138747145775  -3.03270050271447 
C  -3.2683208079706407  -3.09759503004543  -1.143064365570095 
H  -3.9596020908062854  -3.707191723557817  -1.3683280760515548 
C  -2.9347449854640226  -2.896087320001541  0.14198826503765638 
H  -3.3668350933519986  -3.405606940434718  0.8171022443470677 
C  -1.9675509241539992  -1.9516175659140573  0.5112421903797603 
H  -1.7755298364628027  -1.8022912010877177  1.4301324877763764 

-Ni 0
lanl2dz
F 1 1.0
3.130 1.0
****
-C 0
6-31g(d)
****
-N 0
6-31+g(d)
****
-H 0
6-31g(d,p)
****
-Br 0
6-31+g(d)
****
-P 0
6-31+g(d)
****

-Ni 0
lanl2dz


