%chk=URUMUVUJ_PN_Ni_gaussain.chk
%nprocshared=32
%mem=64GB
#p opt rwb97xd/gen pseudo=read

This Gaussian input file was generated using the DART python program. This file was generated on the 2023-08-13 at 16:51:13

0 1
Ni  0.0  0.0  0.0 
P  1.381767907428741  -1.473369420749596  3.953732885143133e-15 
N  1.3817679074287406  1.473369420749596  1.526311928792887e-16 
C  2.9061529638554635  -0.44535836753430225  0.22364025623780226 
H  3.401301963184756  -0.7723879998955193  1.0287093638434226 
C  3.7103138432909817  -0.7892669099976085  -1.0237668041904637 
C  4.604575592141968  -0.015007858646035354  -1.6333574996101032 
H  4.799182126356452  0.8362985227242689  -1.2556579339772744 
C  5.327218256755858  -0.42488171749995407  -2.90290519430615 
H  5.285963084895959  0.3180410516200318  -3.555824500130307 
H  6.280074123714861  -0.5917655326092052  -2.6939141441236143 
C  4.739248157149268  -1.6472661410097786  -3.516455903807154 
H  5.407643309105559  -2.0413556285631405  -4.1315440573601725 
H  3.955637465786352  -1.380591446621116  -4.059210269754113 
C  4.308118050332112  -2.7017215532916388  -2.53795089385298 
H  3.8580330391017017  -3.43870480725897  -3.0230973315781786 
H  5.1030875807322555  -3.0761373666178993  -2.081744422541304 
C  3.3730673870580157  -2.117717488946233  -1.5274573511033227 
C  2.2131973905821134  -2.634198738850854  -1.0912552766332506 
C  1.5941365232550628  -3.934160929613271  -1.4769030370733534 
C  0.512145516697413  -3.9740846983379368  -2.321947511890631 
H  0.15576896324126444  -3.166031956620054  -2.672415083498801 
C  -0.06670448853461197  -5.194015595970889  -2.669249363949257 
H  -0.8210399669067812  -5.212845652852269  -3.2463330017582788 
C  0.44807284337490394  -6.364508871935992  -2.1804517069656986 
H  0.058099225730749104  -7.1958904472212994  -2.4272580152676975 
C  1.5071424559287256  -6.337355023460135  -1.3539530897387333 
H  1.8489782375250234  -7.152003857008846  -1.0073620534752812 
C  2.1140197769006006  -5.129705763918184  -0.9946657907455918 
H  2.8739751893867167  -5.127136577978331  -0.4266082493673608 
C  2.5912605250249814  1.0074124989270152  0.4075387650099658 
C  3.542841120479279  1.8657038019707748  0.9259928029673545 
H  4.376360300940721  1.523348902448445  1.2272494685798645 
C  3.286460975320265  3.216402168567472  1.0087870276527764 
H  3.933693635330871  3.809776516974409  1.3705703557211866 
C  2.08413697941061  3.688285642059324  0.5602711123218588 
H  1.8909844115340315  4.619449687327758  0.5826580800042882 
C  1.1562634979453426  2.791546968517553  0.0760699931904633 
H  0.31715035658295276  3.1235005933940427  -0.2164912088242748 
C  1.0435170986496551  -2.297820887498508  1.566237603090897 
C  2.00285215920569  -3.1006899258678344  2.168078021155262 
H  2.8337388909202477  -3.2522442997100685  1.7315986163375592 
C  1.7574515807353523  -3.6794416754230608  3.394663900118983 
H  2.4194687574832274  -4.221739865372934  3.8045990057977837 
C  0.5495187791923772  -3.470331790515003  4.025659639399654 
H  0.3889491037210384  -3.8452093006773853  4.882858969598592 
C  -0.41979710953209715  -2.716998719820958  3.4071117087871494 
H  -1.2677967115298796  -2.6118070633244153  3.8253988594566297 
C  -0.17846562461308957  -2.1052863432050084  2.185828616018855 
H  -0.8452230509311414  -1.562269263623597  1.7790986985888437 
Br  -1.5839191898578664  1.5839191898578664  0.0 
C  -1.2937473829822488  -1.2398794889499034  -0.4598005675376139 
C  -1.601562203225019  -1.4938654694550033  -1.7919791134336869 
H  -1.1309417375171225  -1.0428217585005106  -2.480879663633267 
C  -2.60218398542082  -2.411889969420291  -2.121542410022959 
H  -2.8231586547736818  -2.5626138747145775  -3.03270050271447 
C  -3.2683208079706407  -3.09759503004543  -1.143064365570095 
H  -3.9596020908062854  -3.707191723557817  -1.3683280760515548 
C  -2.9347449854640226  -2.896087320001541  0.14198826503765638 
H  -3.3668350933519986  -3.405606940434718  0.8171022443470677 
C  -1.9675509241539992  -1.9516175659140573  0.5112421903797603 
H  -1.7755298364628027  -1.8022912010877177  1.4301324877763764 

-Ni 0
lanl2dz
F 1 1.0
3.130 1.0
****
-C 0
6-31g(d)
****
-N 0
6-31+g(d)
****
-H 0
6-31g(d,p)
****
-Br 0
6-31+g(d)
****
-P 0
6-31+g(d)
****

-Ni 0
lanl2dz


