%chk=GADAYOLO_PN_Pd_gaussain.chk
%nprocshared=32
%mem=64GB
#p opt rwb97xd/gen pseudo=read

This Gaussian input file was generated using the DART python program. This file was generated on the 2023-08-13 at 16:51:13

0 1
Pd  0.0  0.0  0.0 
P  1.532480624673605  1.4641048920757003  -1.9040983849328095e-17 
N  1.532480624673605  -1.4641048920757003  -2.220446049250313e-16 
C  1.6906836014151225  1.9365500008543108  1.7390419567512938 
C  0.5426768193121282  1.8884257200180459  2.5387100015296022 
H  -0.28171281764425116  1.6350465243006815  2.1901511117325443 
C  0.6935749115222346  2.2457929536308052  3.905487118000077 
H  -0.04839185941733515  2.2176239609423583  4.467549195241042 
C  1.8744432247225347  2.605161242643253  4.381582024223415 
H  1.9625085385855843  2.8236104273506175  5.281970131760863 
C  2.927702556816639  2.654945674342448  3.5879160304217956 
H  3.7534348876910064  2.8571270150388317  3.9660136543537616 
C  2.8772804727301313  2.4276338903293717  2.2391400756075024 
H  3.6078654632353264  2.596957872061674  1.6870857025074881 
C  0.317427757608715  4.510366006384849  -1.325175982156874 
H  -0.2957033248370262  3.8443901632076347  -1.5375394254405932 
C  -0.07306199022667803  5.857191483625346  -1.325601060231168 
H  -0.9387170484352962  6.080170873126026  -1.5832994344125975 
C  0.7662644810307123  6.819371910468123  -0.9697829875489509 
H  0.4816803217097281  7.702496143573376  -1.0198130301816832 
C  2.015480513165574  6.560218500727053  -0.5372462893638716 
H  2.562397368390891  7.251782411537103  -0.24099639360766137 
C  2.479471233527471  5.239313055039897  -0.5385558587845095 
H  3.3408755599062534  5.056942029954766  -0.2374843129597115 
C  1.655424245504929  4.168346597317736  -0.9955071449902104 
C  2.177705995857292  2.830042459680384  -0.9992190759723816 
C  3.2350641798806876  2.3860665816417277  -1.7339181643062285 
C  3.975087607965422  3.1971799359017306  -2.7619913681330965 
H  4.68505779126926  3.6970615215457716  -2.3290184369312517 
H  3.367481833449933  3.8293265874219315  -3.17379502735342 
C  4.567337610419294  2.29211784836143  -3.8337288323894647 
H  3.8600656540478804  1.9675107573174189  -4.404076801768285 
H  5.183769734631669  2.808311144409049  -4.378740343602275 
C  5.275597498763311  1.1553908733968874  -3.2470266123912097 
H  5.643717867017024  0.635626173395698  -3.9752220264865077 
H  6.033290904135611  1.5145304697782178  -2.7467855867182047 
C  4.578710222934379  0.26175624921017215  -2.378815731762277 
H  5.222574735881723  -0.21269125367002717  -1.830200733810312 
H  4.1119416003175395  -0.3947368888171967  -2.91883931704664 
C  3.589889864055856  0.9441016401771103  -1.4826993524378358 
C  2.881349146281872  0.39591354631579767  -0.48211826376732625 
C  2.764565500552404  -1.0510096703648188  -0.11937422850174806 
C  3.868919213094219  -1.819360251725922  0.17522774317735046 
H  4.725626972008939  -1.4571200851432553  0.16724917629509828 
C  3.6534157089904977  -3.165271136024855  0.49095775639226696 
H  4.376642842804118  -3.737565351101268  0.6108170251444607 
C  2.3770249117916977  -3.6390660592946906  0.6210912398236019 
H  2.2187138610506913  -4.51247654164549  0.8973759309178237 
C  1.3345838545731294  -2.7883215451949477  0.32769050029786095 
H  0.465823809492923  -3.1196130582724964  0.35309930654752936 
Br  -1.654629867976521  1.654629867976521  0.0 
C  -1.352040782177733  -1.3199206589279684  -0.4819701001757076 
C  -1.6380700204479186  -1.599217458033982  -1.8139382277462257 
H  -1.1579680913617836  -1.159339363685303  -2.503515938957912 
C  -2.63068216563725  -2.52632649780156  -2.142289956238523 
H  -2.8368222554424674  -2.694399528648736  -3.0538898079700485 
C  -3.3101544432602585  -3.1961573187854975  -1.1619874135498987 
H  -3.9960123560788676  -3.811990145619169  -1.3868663427944008 
C  -2.9974710358883443  -2.9701089012107795  0.12423560353005347 
H  -3.438659168087169  -3.468581175155742  0.8017084178296768 
C  -2.0389854250767776  -2.015940632791841  0.4912562833419403 
H  -1.8619130127668426  -1.8492165108145995  1.4101568590026907 

-Pd 0
lanl2dz
F 1 1.0
1.472 1.0
****
-C 0
6-31g(d)
****
-N 0
6-31+g(d)
****
-H 0
6-31g(d,p)
****
-Br 0
6-31+g(d)
****
-P 0
6-31+g(d)
****

-Pd 0
lanl2dz


