%chk=NUJEFUGI_PN_Pd_gaussain.chk
%nprocshared=32
%mem=64GB
#p opt rwb97xd/gen pseudo=read

This Gaussian input file was generated using the DART python program. This file was generated on the 2023-08-13 at 16:51:13

0 1
Pd  0.0  0.0  0.0 
P  1.6255219454070744  1.3600655884919666  0.0 
N  1.6255219454070744  -1.360065588491967  0.0 
C  2.2514297623370276  1.7279263550853956  1.6598090887530879 
C  1.6778794344199857  2.791569812607185  2.35886313288512 
C  2.0360873733724185  3.0357171116857407  3.675773922887299 
C  2.9761276694341294  2.233177352400853  4.301987014851345 
C  3.5256179844346347  1.1676002271043255  3.614625135078063 
C  3.171819477913432  0.9006923455495073  2.312634559249148 
C  1.4299848539562672  2.9530598884229633  -0.822215024342375 
C  2.3563762669416937  3.964583719803338  -0.5778752844381788 
C  2.320308317418036  5.129124579745371  -1.3310087444189693 
C  1.3681537031297237  5.280639721179462  -2.3184976316504864 
C  0.4243672613875549  4.300065154567023  -2.539283051677495 
C  0.4541358763714285  3.1280476956388537  -1.8001691798488695 
C  2.9085218913861244  0.4525522005761953  -1.0066916406583708 
C  4.298175559541974  1.0857119851383705  -0.9509007830361318 
C  2.409665999105611  0.4596253778416146  -2.4812280487882106 
C  2.8258738461405954  -0.9636181049571066  -0.49786248824785195 
C  3.911686212479914  -1.8236252324787434  -0.5757333153693927 
C  3.780426355657806  -3.118043442818162  -0.11229633289093884 
C  2.5971408196447126  -3.5244697429004264  0.4319477510123238 
C  1.5429595419724031  -2.6331726905692197  0.4776174161183383 
H  1.0283331128166917  3.3522784000846215  1.935500219983334 
H  1.6382634944017127  3.7559846879621075  4.157264805340623 
H  3.244220166339776  2.421443067059447  5.1983670145094365 
H  4.158864365876843  0.6140057818284645  4.075080377799938 
H  3.5536611082698784  0.12493263665938481  1.8429792565116407 
H  3.0114746978344393  3.858651273442608  0.13481043356795328 
H  2.9543431796457185  5.851299600796425  -1.1545193043670423 
H  1.3904287237230133  6.087756303856299  -2.859145812472022 
H  -0.2590478131545544  4.424874628048531  -3.2107614215583835 
H  -0.21943715288717214  2.443203208813209  -1.9664358726046247 
H  4.609934182685318  1.0968438600480124  -0.045952689355186496 
H  4.906722323913192  0.5941043702869708  -1.4805266590972035 
H  4.263576402126538  1.9892611377660623  -1.2669801830164613 
H  1.5409981774720014  0.06418358845236982  -2.5336718936412397 
H  2.362477022189151  1.3490525718207562  -2.8163628083521424 
H  3.0066105275871253  -0.046254839128570646  -3.030018761167877 
H  4.734382706398154  -1.5065858016979778  -0.9730628992476739 
H  4.531076544668073  -3.732899415262273  -0.16094720018695072 
H  2.5036584527527705  -4.412493574412237  0.7879442843484924 
H  0.6924342139365448  -2.9210200071343584  0.835478323058122 
Br  -1.654629867976521  1.654629867976521  0.0 
C  -1.352040782177733  -1.3199206589279684  -0.4819701001757076 
C  -1.6380700204479186  -1.599217458033982  -1.8139382277462257 
H  -1.1579680913617836  -1.159339363685303  -2.503515938957912 
C  -2.63068216563725  -2.52632649780156  -2.142289956238523 
H  -2.8368222554424674  -2.694399528648736  -3.0538898079700485 
C  -3.3101544432602585  -3.1961573187854975  -1.1619874135498987 
H  -3.9960123560788676  -3.811990145619169  -1.3868663427944008 
C  -2.9974710358883443  -2.9701089012107795  0.12423560353005347 
H  -3.438659168087169  -3.468581175155742  0.8017084178296768 
C  -2.0389854250767776  -2.015940632791841  0.4912562833419403 
H  -1.8619130127668426  -1.8492165108145995  1.4101568590026907 

-Pd 0
lanl2dz
F 1 1.0
1.472 1.0
****
-C 0
6-31g(d)
****
-N 0
6-31+g(d)
****
-H 0
6-31g(d,p)
****
-Br 0
6-31+g(d)
****
-P 0
6-31+g(d)
****

-Pd 0
lanl2dz


