%chk=EGIBOTOQ_PN_Ni_gaussain.chk
%nprocshared=32
%mem=64GB
#p opt rwb97xd/gen pseudo=read

This Gaussian input file was generated using the DART python program. This file was generated on the 2023-08-11 at 15:55:49

0 0
Ni  0.0  0.0  0.0 
P  1.3618655651348242  -1.4917848982008097  -1.7076142066231109e-15 
N  1.3618655651348264  1.4917848982008097  -7.166865759728253e-17 
N  1.2586642268996782  2.618202347543969  -0.7471011869899121 
C  2.2358964766774774  1.4478675780301768  0.9516645494379816 
H  2.726945127890338  2.24486063073767  1.1135837455761284 
C  2.550563933594277  0.29671504117909175  1.8110164205936927 
C  2.321295708374565  -1.045759528992096  1.4809155885010006 
C  2.791115775339251  -2.0568107849868933  2.331104016103168 
H  2.655776238186222  -2.9677449529349285  2.0973724364053905 
C  3.4497816834529167  -1.7425472436644012  3.5067853411586993 
H  3.773119716975644  -2.435239994640957  4.070325471781364 
C  3.635519243050951  -0.41911070306051496  3.8600009862666207 
H  4.0467607591390875  -0.20022227591942907  4.688220589940215 
C  3.2206556093562453  0.5855304464829214  3.006415357239428 
H  3.3935469901987396  1.4908689786190732  3.235926996726282 
C  2.1516158597911748  3.786376872639221  -0.5420577763791098 
H  3.1048776170241377  3.486856596264997  -0.5090826912712708 
C  1.9067895634759071  4.612499198643695  -1.8157626664967343 
H  1.8792015041063812  5.58054159318844  -1.6079434148757572 
H  2.6178315673719945  4.447241264810653  -2.4840087693665454 
C  0.5533360278860823  4.127397991443656  -2.33040643238971 
H  0.4452289066613708  4.320496326429767  -3.295848944073415 
H  -0.19237838861203627  4.542725375939406  -1.8296699520781485 
C  0.6253032830365579  2.6019882673309485  -2.0669594780165377 
H  -0.29479290532251956  2.2128591370521016  -2.0096845783174793 
C  1.8068835076755116  4.561726550327339  0.7252516896605679 
C  0.6162807490445574  4.393538026430493  1.3938329723553409 
H  -0.006744811956381103  3.740563877024085  1.0983636329198387 
C  0.32675923623636294  5.186114812417533  2.5083588006499347 
H  -0.49741453520189705  5.071534030559402  2.9687036375950324 
C  1.2258631809174774  6.128814099490418  2.942258052563511 
H  1.0259003618574558  6.662891794579642  3.702343038997113 
C  2.4175292027929345  6.299985741131228  2.277583236276959 
H  3.039445537059105  6.951885643840319  2.58231516768686 
C  2.718820309055725  5.5264264086887405  1.1633785475064833 
H  3.5399091187879863  5.6532569391681635  0.7015381604994899 
C  1.431318895543354  1.9049026377243004  -3.1549678775205363 
C  2.7959664602602237  1.6762804647747451  -3.039739121785824 
H  3.241693929984241  1.8736595945374364  -2.22401748307103 
C  3.519405206929546  1.155341644481506  -4.116841431378166 
H  4.452335288892106  0.9998904294439447  -4.031462734312074 
C  2.8860156991201142  0.8705154336032104  -5.294005039800423 
H  3.382465331478323  0.5319883908579228  -6.028664017736084 
C  1.516128563706114  1.075124402609487  -5.419766266056698 
H  1.0768090217146802  0.8664750186564782  -6.234669471720114 
C  0.7950111323693232  1.5836768493563222  -4.346723420159993 
H  -0.14224226608535373  1.7138992830559094  -4.4300754138166925 
C  0.7967736236690512  -3.192131458257321  0.34618638533951657 
C  1.2378043572762012  -4.25144298628385  -0.4187915872871825 
H  1.8258381422520074  -4.10176794917274  -1.1500209569058004 
C  0.8079232128063847  -5.55957805478708  -0.10648434404524622 
H  1.1109808277960973  -6.296669086695345  -0.6238932951440486 
C  -0.045398352074836446  -5.764546720422975  0.9448343388554925 
H  -0.3356607341139801  -6.645382839346548  1.1513184330918786 
C  -0.4909854419952375  -4.69174330759169  1.7159628124017818 
H  -1.0811632812906717  -4.8407128810657385  2.4451635489507466 
C  -0.07112270963916578  -3.4029340581356777  1.4119401413801462 
H  -0.3739080762939191  -2.667241461754221  1.931187640526052 
C  2.47767595237474  -1.6391081518850792  -1.4119454729738907 
C  3.8587040842589078  -1.6783508906141054  -1.2507155551496407 
H  4.2389439165936915  -1.5451185692253375  -0.3907395796460253 
C  4.683188582429297  -1.9112665880575233  -2.3448627116881164 
H  5.626907940011444  -1.9402723281291554  -2.2391698965696527 
C  4.111241630483648  -2.102374016041168  -3.5931683053348142 
H  4.6677052899060785  -2.2711675500846433  -4.3442681646127435 
C  2.74489903417427  -2.0515827591438875  -3.7568774918009518 
H  2.366471227432312  -2.1845694854737148  -4.617810674867211 
C  1.91967994882331  -1.8050866420136666  -2.671073151501889 
H  0.9793834014165288  -1.7488277872007383  -2.7888788567544607 
Br  -1.5839191898578664  1.5839191898578664  0.0 
C  -1.2937473829822488  -1.2398794889499034  -0.4598005675376139 
C  -1.601562203225019  -1.4938654694550033  -1.7919791134336869 
H  -1.1309417375171225  -1.0428217585005106  -2.480879663633267 
C  -2.60218398542082  -2.411889969420291  -2.121542410022959 
H  -2.8231586547736818  -2.5626138747145775  -3.03270050271447 
C  -3.2683208079706407  -3.09759503004543  -1.143064365570095 
H  -3.9596020908062854  -3.707191723557817  -1.3683280760515548 
C  -2.9347449854640226  -2.896087320001541  0.14198826503765638 
H  -3.3668350933519986  -3.405606940434718  0.8171022443470677 
C  -1.9675509241539992  -1.9516175659140573  0.5112421903797603 
H  -1.7755298364628027  -1.8022912010877177  1.4301324877763764 

-Ni 0
lanl2dz
F 1 1.0
3.130 1.0
****
-P 0
6-31+g(d)
****
-H 0
6-31g(d,p)
****
-N 0
6-31+g(d)
****
-Br 0
6-31+g(d)
****
-C 0
6-31g(d)
****

-Ni 0
lanl2dz
