%chk=UYIGAVUC_PN_Pd_gaussain.chk
%nprocshared=32
%mem=64GB
#p opt rwb97xd/gen pseudo=read

This Gaussian input file was generated using the DART python program. This file was generated on the 2023-10-04 at 09:55:46

0 1
Pd  0.0  0.0  0.0 
P  1.5773717974846642  1.4156264381891153  -2.0819927304572364e-15 
N  2.945835720342502  0.4620296498112042  -0.1467772020168863 
H  3.733557649649886  0.8367699702015265  -0.2589643419306356 
N  1.5773717974846642  -1.4156264381891153  2.3314683517128287e-15 
N  3.959553959155551  -1.5989623896792562  -0.1589720966342689 
N  5.063378511511074  -4.968574825077104  -0.5200185380089819 
C  1.7734068856719123  2.387835527304857  1.5223264765615152 
C  0.7344985039990917  2.475936001155532  2.4347664860948797 
H  -0.09773396326634476  2.050883534086802  2.2630331443464353 
C  0.9349601782671471  3.2023839836582577  3.610522964226034 
H  0.23572255312409562  3.262620249172684  4.249153527150482 
C  2.134491978558516  3.8294146967434703  3.8524550103415347 
H  2.2584873992226098  4.32036929553513  4.655882174171382 
C  3.157101118925788  3.745692433014337  2.9307599476481196 
H  3.9823132014161082  4.1846697989604955  3.101128962140153 
C  2.988477583095154  3.0281774957408145  1.75804216064506 
H  3.691748657474208  2.974535402776556  1.1223557742844945 
C  1.741617827316061  2.6551721563693085  -1.309950775497235 
C  1.0135767061023695  3.8317330767280846  -1.2190556903362428 
H  0.401600049947306  3.9596194739555837  -0.502756324340818 
C  1.1798974645095621  4.8211567708713865  -2.1724859073897487 
H  0.6840686857668195  5.62767929277379  -2.10486036610043 
C  2.0581020483968238  4.6430875407413925  -3.21448672222644 
H  2.1660822670577438  5.333812031060194  -3.86013387110251 
C  2.785362221004385  3.4739352980655602  -3.337905054677098 
H  3.388341169199718  3.355557949014091  -4.061314220547178 
C  2.6176676396756005  2.4583294071222257  -2.374682229120015 
H  3.1001903732941773  1.6435257881141516  -2.450678110538657 
C  2.8384874975015135  -0.8924333308694735  -0.08963857218998485 
C  1.4984319639834924  -2.7651193894819555  0.05395708570473762 
H  0.646129196358004  -3.1778489622267307  0.13199247562408498 
C  2.621539199565146  -3.548150933042263  -0.001447509535457487 
H  2.5558710749267712  -4.494193956025907  0.04739126676418437 
C  3.8524966963510874  -2.931332006491985  -0.12916913243407885 
C  5.14571674755182  -3.6709807490934723  -0.21970921604595312 
C  6.347119335495325  -3.0127486231153906  0.0020904683836961563 
H  6.360990599097093  -2.090195444700161  0.22596498913594237 
C  7.518889565804861  -3.7274141575442195  -0.11117647851584647 
H  8.354655998654161  -3.3078076116535806  0.05533546210129002 
C  7.468133314949221  -5.04773509079194  -0.46250499461858907 
H  8.263884154839921  -5.55295974307726  -0.5808851514709829 
C  6.221383940395849  -5.627280416357836  -0.6429893503547652 
H  6.18732560114677  -6.55111330031623  -0.8675152776876783 
Br  -1.654629867976521  1.654629867976521  0.0 
C  -1.352040782177733  -1.3199206589279684  -0.4819701001757076 
C  -1.6380700204479186  -1.599217458033982  -1.8139382277462257 
H  -1.1579680913617836  -1.159339363685303  -2.503515938957912 
C  -2.63068216563725  -2.52632649780156  -2.142289956238523 
H  -2.8368222554424674  -2.694399528648736  -3.0538898079700485 
C  -3.3101544432602585  -3.1961573187854975  -1.1619874135498987 
H  -3.9960123560788676  -3.811990145619169  -1.3868663427944008 
C  -2.9974710358883443  -2.9701089012107795  0.12423560353005347 
H  -3.438659168087169  -3.468581175155742  0.8017084178296768 
C  -2.0389854250767776  -2.015940632791841  0.4912562833419403 
H  -1.8619130127668426  -1.8492165108145995  1.4101568590026907 

-Pd 0
lanl2dz
F 1 1.0
1.472 1.0
****
-P 0
6-31+g(d)
****
-N 0
6-31+g(d)
****
-C 0
6-31g(d)
****
-H 0
6-31g(d,p)
****
-Br 0
6-31+g(d)
****

-Pd 0
lanl2dz


