%chk=EMOKAYUM_PN_Pd_gaussain.chk
%nprocshared=32
%mem=64GB
#p opt rwb97xd/gen pseudo=read

This Gaussian input file was generated using the DART python program. This file was generated on the 2023-10-04 at 16:41:16

0 1
Pd  0.0  0.0  0.0 
P  1.5818420022239892  1.4106296041130002  3.0336742866664334e-16 
N  1.5818420022239892  -1.4106296041130002  -2.220446049250313e-16 
C  1.410053867897933  -2.6954351084889145  -0.28834110499567733 
H  0.5329920251251945  -3.0039295415641605  -0.47878681566853093 
C  2.464022616888012  -3.616456541905482  -0.3243968304716735 
H  2.2993117471104862  -4.5239992279991785  -0.5543079922167464 
C  3.7269987488118703  -3.202524693107259  -0.028561733261745062 
H  4.4388242557223885  -3.8296603759403642  0.016950166600283846 
C  3.9667474762074315  -1.8326928574745165  0.2099605923164793 
C  5.259356052797086  -1.2797353286337172  0.4375762750476298 
H  6.007325566585966  -1.8592222312313726  0.5187461965717065 
C  5.44162580687843  0.06669891212098866  0.5404134865540906 
H  6.31155013187544  0.41469081486335946  0.6992551511268639 
C  4.3466107521145005  0.9483260638366962  0.41224354000651764 
H  4.484606983610422  1.888546101848711  0.44282670880256597 
C  3.0788317319637732  0.4421561961987832  0.24374822505338678 
C  2.8745530806292696  -0.9545191282488777  0.16786304410230074 
C  1.792981636773751  2.261662275268987  -1.583296506453339 
H  1.8696006002793926  1.5995157576596934  -2.3013425799397282 
H  2.60545594187425  2.8084856495629302  -1.5549523557822724 
H  1.017266658334481  2.837583365845306  -1.7498873515029842 
C  1.6400292414427189  2.6971391986292255  1.2710056523909883 
H  2.5149187352321807  3.1377475469779186  1.2488156316097554 
H  1.5001305447898485  2.2926344595139603  2.151544039236305 
H  0.9362098304526588  3.3580508350231235  1.0987992483499285 
Br  -1.654629867976521  1.654629867976521  0.0 
C  -1.352040782177733  -1.3199206589279684  -0.4819701001757076 
C  -1.6380700204479186  -1.599217458033982  -1.8139382277462257 
H  -1.1579680913617836  -1.159339363685303  -2.503515938957912 
C  -2.63068216563725  -2.52632649780156  -2.142289956238523 
H  -2.8368222554424674  -2.694399528648736  -3.0538898079700485 
C  -3.3101544432602585  -3.1961573187854975  -1.1619874135498987 
H  -3.9960123560788676  -3.811990145619169  -1.3868663427944008 
C  -2.9974710358883443  -2.9701089012107795  0.12423560353005347 
H  -3.438659168087169  -3.468581175155742  0.8017084178296768 
C  -2.0389854250767776  -2.015940632791841  0.4912562833419403 
H  -1.8619130127668426  -1.8492165108145995  1.4101568590026907 

-Pd 0
lanl2dz
F 1 1.0
1.472 1.0
****
-H 0
6-31g(d,p)
****
-P 0
6-31+g(d)
****
-N 0
6-31+g(d)
****
-C 0
6-31g(d)
****
-Br 0
6-31+g(d)
****

-Pd 0
lanl2dz


