%chk=APEZANEY_PN_Pd_gaussain.chk
%nprocshared=32
%mem=64GB
#p opt rwb97xd/gen pseudo=read

This Gaussian input file was generated using the DART python program. This file was generated on the 2023-10-04 at 09:55:46

0 1
Pd  0.0  0.0  0.0 
P  1.4278016922878345  1.566359577970525  -6.513653377422393e-15 
N  1.4278016922878327  -1.566359577970525  -3.3861802251067274e-15 
C  1.6308507592953454  -2.5204897094032974  -0.8156284869224988 
H  2.325468575310491  -3.1303689851681495  -0.5993430998366021 
C  0.885865620081141  -2.7714419846843645  -2.0743883837579755 
H  0.1605538517067393  -2.09061712812  -2.171587475017741 
C  0.26095610726244867  -4.179909932292188  -2.0100604633025263 
H  -0.23330042081050562  -4.355146773730368  -2.8384419840162867 
H  0.9701251270823308  -4.847695346772337  -1.90570912629488 
H  -0.35163147539711437  -4.230598986144606  -1.247432911091828 
C  1.8348561504712293  -2.6735337315879066  -3.267486857147976 
H  1.3368989481559186  -2.840841684809953  -4.095735179483151 
H  2.229124220703989  -1.777027444175002  -3.299923031769344 
H  2.5470375119320847  -3.3405873473060623  -3.175407857668686 
C  2.3338930487787084  -1.4762380490538414  1.1560607353068848 
H  2.8527990127172846  -2.316265679685639  1.2310400015350476 
H  1.8001450856382064  -1.3720520452171985  1.9832741288444413 
C  3.300551727298136  -0.29075458400815357  1.0198203105190866 
H  4.044456023048358  -0.41220860559781425  1.6608403253423694 
H  3.685240055665184  -0.29759350538397156  0.10780644046414661 
C  2.656610116814875  1.065995120777698  1.2677596798248418 
H  3.3696418435596813  1.7514982262595247  1.307329605653582 
H  2.2107750149675587  1.047060020934003  2.15210837460236 
C  0.9519695300765842  3.2460865493527704  0.5422196925752589 
C  0.8854709761154126  3.57565190411559  1.8930894121489787 
H  1.104926238509702  2.919854404328902  2.5445050375994067 
C  0.5051257418030359  4.84204672041321  2.303178880424338 
H  0.46828048891057006  5.052325815732277  3.228702764184823 
C  0.17723492557064802  5.8064123113314565  1.3564401204259138 
H  -0.08264491000303908  6.678104513558152  1.6309881774931065 
C  0.2300314928611833  5.486313639831246  0.012425870878620293 
H  0.0019598760988503994  6.1435331406905656  -0.6353201019515142 
C  0.6097396433080485  4.228665474170354  -0.4011835727926013 
H  0.6409932115412047  4.024721740884095  -1.3290752087749345 
C  2.4786997221221263  1.8424883999108852  -1.460327776420179 
C  3.524810381284378  2.7629828223142754  -1.4083947704281365 
H  3.647653629137934  3.301070906847225  -0.6359186220970294 
C  4.39220252190988  2.891295786225415  -2.4968719441316076 
H  5.098145305963078  3.5262205978632144  -2.4688203985423796 
C  4.223151285073219  2.0954981401861525  -3.6142502578116256 
H  4.827051121274504  2.1722371161470484  -4.343299623358668 
C  3.175493260439727  1.1846615129740803  -3.677308579625734 
H  3.05715455178537  0.646504379800243  -4.4505556747047486 
C  2.303477450934638  1.0658997212269874  -2.6025768341216486 
H  1.5820078195325527  0.4496331700620906  -2.64743838647855 
Br  -1.654629867976521  1.654629867976521  0.0 
C  -1.352040782177733  -1.3199206589279684  -0.4819701001757076 
C  -1.6380700204479186  -1.599217458033982  -1.8139382277462257 
H  -1.1579680913617836  -1.159339363685303  -2.503515938957912 
C  -2.63068216563725  -2.52632649780156  -2.142289956238523 
H  -2.8368222554424674  -2.694399528648736  -3.0538898079700485 
C  -3.3101544432602585  -3.1961573187854975  -1.1619874135498987 
H  -3.9960123560788676  -3.811990145619169  -1.3868663427944008 
C  -2.9974710358883443  -2.9701089012107795  0.12423560353005347 
H  -3.438659168087169  -3.468581175155742  0.8017084178296768 
C  -2.0389854250767776  -2.015940632791841  0.4912562833419403 
H  -1.8619130127668426  -1.8492165108145995  1.4101568590026907 

-Pd 0
lanl2dz
F 1 1.0
1.472 1.0
****
-P 0
6-31+g(d)
****
-N 0
6-31+g(d)
****
-C 0
6-31g(d)
****
-H 0
6-31g(d,p)
****
-Br 0
6-31+g(d)
****

-Pd 0
lanl2dz


