%chk=ABAQOWOR_PN_Ni_gaussain.chk
%nprocshared=32
%mem=64GB
#p opt rwb97xd/gen pseudo=read

This Gaussian input file was generated using the DART python program. This file was generated on the 2023-10-04 at 09:55:46

0 1
Ni  0.0  0.0  0.0 
P  1.4934261263952764  -1.3600655884919666  1.6655999695771482e-16 
N  1.4934261263952764  1.360065588491967  -1.6655999695771487e-16 
C  2.119333943325231  -1.7279263550853958  -1.6598090887530867 
C  1.5457836154081877  -2.7915698126071855  -2.358863132885118 
C  1.9039915543606225  -3.035717111685741  -3.675773922887301 
C  2.8440318504223443  -2.2331773524008534  -4.301987014851369 
C  3.3935221654228407  -1.167600227104326  -3.6146251350780694 
C  3.0397236589016328  -0.9006923455495076  -2.312634559249147 
C  1.29788903494447  -2.9530598884229633  0.8222150243423757 
C  2.224280447929897  -3.964583719803338  0.5778752844381788 
C  2.1882124984062368  -5.129124579745371  1.331008744418969 
C  1.2360578841179253  -5.280639721179462  2.318497631650484 
C  0.292271442375756  -4.300065154567023  2.5392830516774945 
C  0.3220400573596305  -3.1280476956388537  1.80016917984887 
C  2.776426072374327  -0.45255220057619516  1.0066916406583697 
C  4.166079740530179  -1.0857119851383703  0.9509007830361315 
C  2.277570180093811  -0.45962537784161434  2.4812280487882092 
C  2.693778027128798  0.9636181049571068  0.4978624882478516 
C  3.7795903934681156  1.8236252324787434  0.5757333153693923 
C  3.6483305366460077  3.118043442818162  0.11229633289093918 
C  2.465045000632916  3.5244697429004264  -0.431947751012324 
C  1.4108637229606047  2.6331726905692197  -0.4776174161183397 
H  0.896237293804896  -3.352278400084622  -1.9355002199833353 
H  1.5061676753899185  -3.755984687962108  -4.157264805340636 
H  3.11212434732799  -2.4214430670594473  -5.198367014509472 
H  4.02676854686506  -0.614005781828465  -4.0750803777999645 
H  3.42156528925808  -0.12493263665938503  -1.8429792565116416 
H  2.8793788788226378  -3.858651273442608  -0.13481043356795386 
H  2.82224736063392  -5.851299600796425  1.1545193043670445 
H  1.2583329047112166  -6.0877563038563  2.859145812472023 
H  -0.3911436321663515  -4.424874628048531  3.2107614215583817 
H  -0.35153297189896926  -2.4432032088132085  1.9664358726046247 
H  4.47783836367352  -1.0968438600480124  0.045952689355185886 
H  4.774626504901393  -0.5941043702869706  1.4805266590972028 
H  4.131480583114741  -1.989261137766062  1.2669801830164644 
H  1.4089023584602034  -0.06418358845236952  2.5336718936412383 
H  2.230381203177355  -1.3490525718207558  2.8163628083521406 
H  2.8745147085753278  0.046254839128571014  3.030018761167876 
H  4.602286887386357  1.506585801697978  0.9730628992476723 
H  4.398980725656276  3.732899415262273  0.16094720018695155 
H  2.371562633740971  4.412493574412237  -0.7879442843484924 
H  0.5603383949247467  2.9210200071343575  -0.8354783230581215 
Br  -1.5839191898578664  1.5839191898578664  0.0 
C  -1.2937473829822488  -1.2398794889499034  -0.4598005675376139 
C  -1.601562203225019  -1.4938654694550033  -1.7919791134336869 
H  -1.1309417375171225  -1.0428217585005106  -2.480879663633267 
C  -2.60218398542082  -2.411889969420291  -2.121542410022959 
H  -2.8231586547736818  -2.5626138747145775  -3.03270050271447 
C  -3.2683208079706407  -3.09759503004543  -1.143064365570095 
H  -3.9596020908062854  -3.707191723557817  -1.3683280760515548 
C  -2.9347449854640226  -2.896087320001541  0.14198826503765638 
H  -3.3668350933519986  -3.405606940434718  0.8171022443470677 
C  -1.9675509241539992  -1.9516175659140573  0.5112421903797603 
H  -1.7755298364628027  -1.8022912010877177  1.4301324877763764 

-Ni 0
lanl2dz
F 1 1.0
3.130 1.0
****
-P 0
6-31+g(d)
****
-N 0
6-31+g(d)
****
-C 0
6-31g(d)
****
-H 0
6-31g(d,p)
****
-Br 0
6-31+g(d)
****

-Ni 0
lanl2dz


