%chk=BOBADIGO_PN_Pd_gaussain.chk
%nprocshared=32
%mem=64GB
#p opt rwb97xd/gen pseudo=read

This Gaussian input file was generated using the DART python program. This file was generated on the 2023-08-11 at 15:55:49

0 0
Pd  0.0  0.0  0.0 
N  1.5736512431285399  1.41976116477385  3.9887120812335936e-16 
C  1.7179141682790149  2.389370549898337  0.9936793238794702 
C  0.8320228539866281  2.854649743603584  1.967629456671871 
H  -0.05543380637030282  2.5184633223641875  2.0235695689562654 
C  1.2878565477965134  3.8214305719963906  2.8498104604572534 
C  2.609774233980699  4.323293503367314  2.769434288184091 
C  3.4908425191502435  3.839537888661933  1.815648734660951 
H  4.384110290954983  4.157786923225414  1.7646786468211193 
C  3.0185147668386545  2.871316575030663  0.9352343764031752 
N  3.6570816040917276  2.187430225628606  -0.09498328286216778 
C  2.7516552437842168  1.3173503800534765  -0.6182815423512268 
C  3.064484117155275  0.3070248967328473  -1.6412548429502156 
C  3.805675396339553  0.646550552146012  -2.7702396643616574 
H  4.094971759674246  1.5436371900967516  -2.8911291104335444 
C  4.124302020144011  -0.3162875391591162  -3.7213404132494636 
H  4.61363660293917  -0.07550298786844034  -4.498542263440566 
C  3.7274647683948237  -1.621824118824081  -3.5319266471688007 
H  3.95307570190643  -2.2843627121725136  -4.174249688172244 
C  2.9964716101642814  -1.972515698051287  -2.401116867020363 
H  2.7381347741408875  -2.8786440292941835  -2.276483699394775 
C  2.6359502878119425  -1.0250879028881061  -1.4488341678802557 
P  1.5736512431285399  -1.4197611647738504  -2.220446049250313e-16 
C  0.35543184628054547  4.373412190062998  3.9037874855007395 
H  0.1657866184817296  5.315160220065618  3.710299125232412 
H  0.7780218047857985  4.300031552118451  4.784790350958853 
H  -0.48129656549144206  3.8632597623373317  3.8986226603191296 
C  3.0686683366595315  5.4037417633000615  3.718609388012837 
H  4.010063125525088  5.61127397175213  3.5478608186137386 
H  2.9651427207803898  5.092426049807923  4.6422846358081955 
H  2.5269902919028446  6.208852769546013  3.5832235192886186 
C  1.2721908489220017  -3.2350214909080144  -0.09016584213620688 
H  2.1647113921793606  -3.6634189672517783  -0.2327038796065527 
C  0.7209448463537147  -3.8077825652183757  1.2272814192019397 
H  1.2853052755259118  -3.5076481478441153  1.9840394171722302 
H  -0.2000711542454321  -3.474823820657069  1.3765475609103526 
C  0.7137314982574169  -5.335918524864508  1.1622459177766948 
H  1.6471940674810255  -5.6632760562096  1.1148128224725906 
H  0.3085922350407577  -5.6934515928160145  1.9911151853463624 
C  -0.05922497175917596  -5.863132276424777  -0.0359757001326457 
H  -1.022439675344732  -5.672469982852942  0.08705212032487153 
H  0.0534710548909334  -6.845626399105045  -0.0910028250439956 
C  0.41766381305885014  -5.229101710344755  -1.3349215143185493 
H  -0.1588404167869255  -5.53393638658337  -2.0803196851859234 
H  1.3428073011481043  -5.524613501630316  -1.5236914474574517 
C  0.3780134523975853  -3.696487423527998  -1.254139667690725 
H  -0.5514018875142455  -3.3908177512143967  -1.106786020418932 
H  0.7022190408934175  -3.3068559603458683  -2.103979469822068 
C  2.6800901892217577  -1.109918044033138  1.4582173428874934 
H  3.1443818447022345  -0.24853908090675847  1.2557247738027808 
C  1.8956157822125612  -0.8491274799674017  2.7533657808828833 
H  1.2046602378476048  -0.15960205182545306  2.591765751003555 
H  1.441223186350445  -1.680025943222597  3.0410663762695496 
C  2.8457178175158164  -0.37736622418837995  3.8497055092784427 
H  3.231594070428854  0.49859141985529165  3.5956305138946787 
H  2.3409172631731154  -0.25684316774370086  4.692337370295222 
C  3.966699282722137  -1.375639747345184  4.07253209572644 
H  3.5878403448418235  -2.219104651662911  4.423304087727646 
H  4.594308591798097  -1.0168167582115522  4.748204640403537 
C  4.730691761294155  -1.6646218593931308  2.779478229253062 
H  5.409385445890585  -2.364928333234718  2.9504305769541377 
H  5.206551239366211  -0.8450011732720549  2.4904194324462336 
C  3.796578090320186  -2.1298189723915013  1.655441132108302 
H  4.309684223964888  -2.2306046880106436  0.814871970680559 
H  3.407404167682161  -3.0109160794526453  1.8875392920902836 
C  5.1129611723722395  2.4305313144339027  -0.33753544897304655 
H  5.494261498317005  1.6848414151270452  -0.865341052871059 
H  5.594050187115364  2.4762128675071837  0.5262280693595635 
C  5.2871244931834065  3.7402621558858145  -1.0951985077489899 
H  4.974603243297752  3.6222927190850274  -2.027426838336952 
H  4.727135947753421  4.43955386750137  -0.6722525643318549 
C  6.731274174244142  4.188858670428068  -1.1007649997211104 
H  7.25538257881364  3.5934635321657473  -1.693845617844156 
H  7.101136398380241  4.109836396975567  -0.18579438518995284 
C  6.880477655935703  5.639580859556322  -1.5824151850445196 
H  6.52195697056165  5.70625671134656  -2.502268971766619 
H  6.328983647612324  6.2229755427965365  -1.0031948622393647 
C  8.282464305658637  6.156104003163232  -1.5807884960564778 
H  8.866250426530524  5.494626542516114  -2.030469020577147 
H  8.590251314384481  6.239216218039735  -0.6440081285220263 
C  8.44657619467325  7.481769183123129  -2.2600293285495976 
H  8.20621625367914  7.3806670093481035  -3.2147410071328615 
H  9.401160699810221  7.744353827111038  -2.2180163865650444 
C  7.584652469528017  8.636461983345718  -1.6473610992885444 
H  7.70098840465632  9.447058186815838  -2.2053148026704985 
H  6.630245512732934  8.375927243998259  -1.694054465137561 
C  7.918818263259519  8.988830855246569  -0.2056897114836882 
H  7.5731143707087085  8.291861354635092  0.3889657971030954 
H  7.511545682547842  9.848223970281062  0.022865093391964297 
H  8.893336277381106  9.050496646065648  -0.1047323918123666 
Br  -1.654629867976521  1.654629867976521  0.0 
C  -1.352040782177733  -1.3199206589279684  -0.4819701001757076 
C  -1.6380700204479186  -1.599217458033982  -1.8139382277462257 
H  -1.1579680913617836  -1.159339363685303  -2.503515938957912 
C  -2.63068216563725  -2.52632649780156  -2.142289956238523 
H  -2.8368222554424674  -2.694399528648736  -3.0538898079700485 
C  -3.3101544432602585  -3.1961573187854975  -1.1619874135498987 
H  -3.9960123560788676  -3.811990145619169  -1.3868663427944008 
C  -2.9974710358883443  -2.9701089012107795  0.12423560353005347 
H  -3.438659168087169  -3.468581175155742  0.8017084178296768 
C  -2.0389854250767776  -2.015940632791841  0.4912562833419403 
H  -1.8619130127668426  -1.8492165108145995  1.4101568590026907 

-Pd 0
lanl2dz
F 1 1.0
1.472 1.0
****
-P 0
6-31+g(d)
****
-H 0
6-31g(d,p)
****
-N 0
6-31+g(d)
****
-Br 0
6-31+g(d)
****
-C 0
6-31g(d)
****

-Pd 0
lanl2dz
