%chk=TIMUPOTA_PN_Ni_gaussain.chk
%nprocshared=32
%mem=64GB
#p opt rwb97xd/gen pseudo=read

This Gaussian input file was generated using the DART python program. This file was generated on the 2023-10-04 at 16:41:16

0 1
Ni  0.0  0.0  0.0 
P  1.489650386835784  -1.3642000311537896  -8.307799853519061e-16 
N  1.489650386835783  1.3642000311537896  -5.604401769240513e-17 
N  3.600496704287584  1.921828599272656  0.0881952613124821 
C  1.5707098343174692  2.7023872055493317  0.33868560975813966 
C  2.8502238172492085  3.045592981321096  0.3810955491484681 
C  5.070324600424995  1.8372156009117226  -0.031182317171542743 
C  2.739687511338877  0.9301487875841815  -0.14737739080255907 
C  3.016722692504044  -0.4781699238404889  -0.48629634195156174 
C  1.6339805576790822  -1.6884025746956917  1.7806168741605732 
C  0.4886807117877816  -1.6363955937692987  2.5599363381394764 
C  0.5908949461356126  -1.8685725933051485  3.935252265911437 
C  1.7937239578085196  -2.152980038063711  4.488431038139662 
C  2.925967899379503  -2.2032249386902185  3.724597000709483 
C  2.8590066223125277  -1.9889558884595282  2.350166710921442 
C  1.5677202222455566  -2.962298250046316  -0.8417146449787114 
C  1.5537141073521674  -2.9959981466524734  -2.230362255322815 
C  1.5240699851994743  -4.21033377351719  -2.8859550415467505 
C  1.5395386787742862  -5.394769657625336  -2.169900570185782 
C  1.5750780094401975  -5.368971864635817  -0.8122136991242953 
C  1.5768583059037706  -4.159451338086299  -0.1247188435799891 
H  0.8146633498772184  3.2793068155968093  0.500062550205702 
H  3.206564872681374  3.9085397032943696  0.5849939239558175 
H  5.483129519110382  2.6709521417605337  0.19590544023209477 
H  5.418306820234987  1.1668839493088563  0.5694947604296363 
H  5.3297602272948446  1.6010101892116009  -0.9174672594977941 
H  3.7695162547630052  -0.8056245087976426  0.006862950176256698 
H  3.1908319061110424  -0.5816985829628243  -1.4154577641369097 
H  -0.349656833315521  -1.4348018181355273  2.1624361996541 
H  -0.1831595671138735  -1.8354023954114216  4.493573972895669 
H  1.852511321672392  -2.339715728712059  5.429242415456087 
H  3.7694357452536504  -2.386949817209698  4.13975337123682 
H  3.6445262451548563  -2.05638668152453  1.8059974906633667 
H  1.5453473721236277  -2.1760784798467303  -2.7342566467648863 
H  1.4855936657221362  -4.2352484665415355  -3.839354769316278 
H  1.5461020344744645  -6.2240738096294645  -2.6381104011704304 
H  1.6029787887379199  -6.188825763960288  -0.3254877903449881 
H  1.5856056363278608  -4.1524900239218585  0.8429379314779739 
Br  -1.5839191898578664  1.5839191898578664  0.0 
C  -1.2937473829822488  -1.2398794889499034  -0.4598005675376139 
C  -1.601562203225019  -1.4938654694550033  -1.7919791134336869 
H  -1.1309417375171225  -1.0428217585005106  -2.480879663633267 
C  -2.60218398542082  -2.411889969420291  -2.121542410022959 
H  -2.8231586547736818  -2.5626138747145775  -3.03270050271447 
C  -3.2683208079706407  -3.09759503004543  -1.143064365570095 
H  -3.9596020908062854  -3.707191723557817  -1.3683280760515548 
C  -2.9347449854640226  -2.896087320001541  0.14198826503765638 
H  -3.3668350933519986  -3.405606940434718  0.8171022443470677 
C  -1.9675509241539992  -1.9516175659140573  0.5112421903797603 
H  -1.7755298364628027  -1.8022912010877177  1.4301324877763764 

-Ni 0
lanl2dz
F 1 1.0
3.130 1.0
****
-H 0
6-31g(d,p)
****
-P 0
6-31+g(d)
****
-N 0
6-31+g(d)
****
-C 0
6-31g(d)
****
-Br 0
6-31+g(d)
****

-Ni 0
lanl2dz


