%chk=RIMODOWA_PN_Pd_gaussain.chk
%nprocshared=32
%mem=64GB
#p opt rwb97xd/gen pseudo=read

This Gaussian input file was generated using the DART python program. This file was generated on the 2023-10-04 at 16:41:16

0 1
Pd  0.0  0.0  0.0 
N  1.5736512431285399  -1.41976116477385  -2.2500061152395803e-16 
C  1.7179141682790149  -2.389370549898337  -0.9936793238794699 
C  0.8320228539866281  -2.8546497436035843  -1.9676294566718706 
H  -0.05543380637030282  -2.518463322364188  -2.023569568956265 
C  1.2878565477965134  -3.821430571996391  -2.849810460457253 
C  2.609774233980699  -4.323293503367314  -2.7694342881840908 
C  3.4908425191502435  -3.8395378886619334  -1.8156487346609504 
H  4.384110290954983  -4.157786923225414  -1.7646786468211189 
C  3.0185147668386545  -2.871316575030663  -0.9352343764031749 
N  3.6570816040917276  -2.187430225628606  0.09498328286216805 
C  2.7516552437842168  -1.3173503800534765  0.6182815423512269 
C  3.064484117155275  -0.30702489673284705  1.6412548429502156 
C  3.805675396339553  -0.6465505521460116  2.7702396643616574 
H  4.094971759674246  -1.5436371900967512  2.8911291104335444 
C  4.124302020144011  0.31628753915911667  3.7213404132494636 
H  4.61363660293917  0.0755029878684409  4.498542263440566 
C  3.7274647683948237  1.6218241188240814  3.5319266471688007 
H  3.95307570190643  2.284362712172514  4.174249688172244 
C  2.9964716101642814  1.9725156980512872  2.4011168670203626 
H  2.7381347741408875  2.878644029294184  2.2764836993947744 
C  2.6359502878119425  1.0250879028881064  1.4488341678802554 
P  1.5736512431285399  1.4197611647738504  4.817400832562993e-17 
C  0.35543184628054547  -4.373412190062999  -3.903787485500739 
H  0.1657866184817296  -5.315160220065619  -3.7102991252324116 
H  0.7780218047857985  -4.300031552118452  -4.784790350958852 
H  -0.48129656549144206  -3.863259762337332  -3.898622660319129 
C  3.0686683366595315  -5.403741763300062  -3.7186093880128364 
H  4.010063125525088  -5.61127397175213  -3.5478608186137377 
H  2.9651427207803898  -5.092426049807924  -4.642284635808195 
H  2.5269902919028446  -6.208852769546013  -3.5832235192886177 
C  1.2721908489220017  3.2350214909080144  0.09016584213620647 
H  2.1647113921793606  3.6634189672517783  0.23270387960655226 
C  0.7209448463537147  3.8077825652183757  -1.2272814192019401 
H  1.2853052755259118  3.507648147844115  -1.9840394171722306 
H  -0.2000711542454321  3.474823820657069  -1.376547560910353 
C  0.7137314982574169  5.335918524864508  -1.1622459177766955 
H  1.6471940674810255  5.6632760562096  -1.1148128224725913 
H  0.3085922350407577  5.6934515928160145  -1.9911151853463631 
C  -0.05922497175917596  5.863132276424777  0.035975700132644985 
H  -1.022439675344732  5.672469982852942  -0.08705212032487222 
H  0.0534710548909334  6.845626399105045  0.09100282504399476 
C  0.41766381305885014  5.229101710344755  1.3349215143185487 
H  -0.1588404167869255  5.53393638658337  2.0803196851859225 
H  1.3428073011481043  5.524613501630316  1.523691447457451 
C  0.3780134523975853  3.696487423527998  1.2541396676907246 
H  -0.5514018875142455  3.3908177512143967  1.1067860204189315 
H  0.7022190408934175  3.3068559603458687  2.1039794698220677 
C  2.6800901892217577  1.1099180440331378  -1.4582173428874936 
H  3.1443818447022345  0.2485390809067583  -1.2557247738027808 
C  1.8956157822125612  0.8491274799674013  -2.7533657808828833 
H  1.2046602378476048  0.15960205182545276  -2.591765751003555 
H  1.441223186350445  1.6800259432225966  -3.0410663762695496 
C  2.8457178175158164  0.3773662241883795  -3.8497055092784427 
H  3.231594070428854  -0.4985914198552921  -3.5956305138946787 
H  2.3409172631731154  0.2568431677437003  -4.692337370295222 
C  3.966699282722137  1.3756397473451836  -4.07253209572644 
H  3.5878403448418235  2.2191046516629105  -4.423304087727646 
H  4.594308591798097  1.0168167582115515  -4.748204640403537 
C  4.730691761294155  1.6646218593931303  -2.779478229253062 
H  5.409385445890585  2.3649283332347175  -2.950430576954138 
H  5.206551239366211  0.8450011732720546  -2.4904194324462336 
C  3.796578090320186  2.1298189723915013  -1.6554411321083022 
H  4.309684223964888  2.2306046880106436  -0.8148719706805593 
H  3.407404167682161  3.010916079452645  -1.887539292090284 
C  5.1129611723722395  -2.4305313144339027  0.3375354489730468 
H  5.494261498317005  -1.6848414151270452  0.8653410528710592 
H  5.594050187115364  -2.4762128675071837  -0.5262280693595631 
C  5.2871244931834065  -3.7402621558858145  1.0951985077489903 
H  4.974603243297752  -3.622292719085027  2.0274268383369525 
H  4.727135947753421  -4.43955386750137  0.6722525643318554 
C  6.731274174244142  -4.188858670428068  1.1007649997211109 
H  7.25538257881364  -3.5934635321657473  1.6938456178441565 
H  7.101136398380241  -4.109836396975567  0.18579438518995334 
C  6.880477655935703  -5.639580859556322  1.5824151850445203 
H  6.52195697056165  -5.70625671134656  2.50226897176662 
H  6.328983647612324  -6.2229755427965365  1.0031948622393654 
C  8.282464305658637  -6.156104003163232  1.5807884960564784 
H  8.866250426530524  -5.494626542516114  2.030469020577148 
H  8.590251314384481  -6.239216218039735  0.644008128522027 
C  8.44657619467325  -7.481769183123129  2.2600293285495985 
H  8.20621625367914  -7.3806670093481035  3.2147410071328624 
H  9.401160699810221  -7.744353827111038  2.2180163865650453 
C  7.584652469528017  -8.636461983345718  1.6473610992885455 
H  7.70098840465632  -9.447058186815838  2.2053148026705 
H  6.630245512732934  -8.375927243998259  1.6940544651375622 
C  7.918818263259519  -8.988830855246569  0.2056897114836893 
H  7.5731143707087085  -8.291861354635092  -0.3889657971030944 
H  7.511545682547842  -9.848223970281062  -0.02286509339196309 
H  8.893336277381106  -9.050496646065648  0.10473239181236771 
Br  -1.654629867976521  1.654629867976521  0.0 
C  -1.352040782177733  -1.3199206589279684  -0.4819701001757076 
C  -1.6380700204479186  -1.599217458033982  -1.8139382277462257 
H  -1.1579680913617836  -1.159339363685303  -2.503515938957912 
C  -2.63068216563725  -2.52632649780156  -2.142289956238523 
H  -2.8368222554424674  -2.694399528648736  -3.0538898079700485 
C  -3.3101544432602585  -3.1961573187854975  -1.1619874135498987 
H  -3.9960123560788676  -3.811990145619169  -1.3868663427944008 
C  -2.9974710358883443  -2.9701089012107795  0.12423560353005347 
H  -3.438659168087169  -3.468581175155742  0.8017084178296768 
C  -2.0389854250767776  -2.015940632791841  0.4912562833419403 
H  -1.8619130127668426  -1.8492165108145995  1.4101568590026907 

-Pd 0
lanl2dz
F 1 1.0
1.472 1.0
****
-H 0
6-31g(d,p)
****
-P 0
6-31+g(d)
****
-N 0
6-31+g(d)
****
-C 0
6-31g(d)
****
-Br 0
6-31+g(d)
****

-Pd 0
lanl2dz


