%chk=ALICEYEQ_PN_Pd_gaussain.chk
%nprocshared=32
%mem=64GB
#p opt rwb97xd/gen pseudo=read

This Gaussian input file was generated using the DART python program. This file was generated on the 2023-10-04 at 16:41:16

0 1
Pd  0.0  0.0  0.0 
P  1.5023398700027895  -1.4950166938867273  4.194268855388519e-17 
C  2.3310564382945005  1.6301113994013023  1.2005173676298038 
H  1.765000181388245  1.7331520447866786  2.0068436225761888 
H  2.9274962004815954  2.416946198510994  1.1270816883436292 
C  3.1631483236090894  0.31107802468140017  1.274534600546508 
H  4.123951712464912  0.5023701160469485  1.415107264120098 
H  2.8399967254323837  -0.2742129380068714  2.0060032967948715 
C  2.9226723549100857  -0.34661410278490346  -0.1114625545541612 
H  3.7431591525343713  -0.7720583353482288  -0.49339007372873717 
C  2.4241608174426816  0.81945724419638  -0.9289661085288018 
H  3.1686842892681257  1.4163302782225864  -1.1936592915791584 
H  1.9512162999356786  0.511408332847639  -1.742203344258292 
N  1.5023398700027897  1.4950166938867273  1.8141182329285736e-17 
C  0.9607392571208444  2.7901812749363537  -0.5447459353868208 
H  0.3961831442244912  2.5830204410363504  -1.331615171212725 
H  0.37199711605105334  3.1927363115863985  0.14165309127060235 
C  2.528859367349214  3.830311643619592  -2.2318541079828407 
H  2.342307158795205  3.1256573315254568  -2.842472535424044 
C  3.3598705489975664  4.879802988041248  -2.610845458754116 
H  3.7443536895679426  4.8846602515284685  -3.4802502733305136 
C  3.6330742598194465  5.921654096707206  -1.732028993407288 
H  4.180227063931138  6.649082482254315  -2.001799549348903 
C  3.1009095560492397  5.882115969647014  -0.4670620552742329 
H  3.3152584700013286  6.5733689631592735  0.14983951065659656 
C  2.2751607570083743  4.877174923741989  -0.07856974500554333 
H  1.8981945517927288  4.889416355610166  0.7939496000356749 
C  1.9701942155288605  3.8140511362290033  -0.9521770143217339 
C  2.124723465436877  -2.1019133818702964  -2.6618797813292 
H  2.705912043563602  -1.3516581007175745  -2.626758423760115 
C  2.007460687313623  -2.803301673578194  -3.829682951868629 
H  2.500275129191932  -2.5347321842595547  -4.596881156561091 
C  1.1862309727874574  -3.887975748878429  -3.8939776355591325 
H  1.0862912992693639  -4.3571617037030554  -4.713954276355942 
C  0.4812825495495816  -4.317791200189159  -2.7471161014631336 
H  -0.07266634614633127  -5.089400955262169  -2.7763377857653073 
C  0.6210824098432077  -3.5800075423141173  -1.5731107338287396 
H  0.1615442834359906  -3.8517385113803266  -0.7865416263572469 
C  1.421622544932926  -2.457233277074254  -1.5443659703815438 
C  1.2774187281948084  -2.758160468616427  2.480289842806569 
H  0.5738845043135582  -2.1445973801566947  2.654522509971999 
C  1.6291539909735373  -3.6815713413144127  3.469337791644812 
H  1.1512717694131078  -3.726010570837182  4.290229622031697 
C  2.6968255468899835  -4.534338447670616  3.2186023713232266 
H  2.9631064870298296  -5.16171840191149  3.879954738775704 
C  3.3742090105921356  -4.478354133018984  2.0208403041262857 
H  4.105523811945346  -5.063178756433017  1.8607526057533685 
C  2.9899840007483265  -3.581713884464297  1.0642293714674962 
H  3.4645388794868945  -3.5491692278066456  0.24185837709300914 
C  1.9147918541812816  -2.7116547872522663  1.2661552868898558 
Br  -1.654629867976521  1.654629867976521  0.0 
C  -1.352040782177733  -1.3199206589279684  -0.4819701001757076 
C  -1.6380700204479186  -1.599217458033982  -1.8139382277462257 
H  -1.1579680913617836  -1.159339363685303  -2.503515938957912 
C  -2.63068216563725  -2.52632649780156  -2.142289956238523 
H  -2.8368222554424674  -2.694399528648736  -3.0538898079700485 
C  -3.3101544432602585  -3.1961573187854975  -1.1619874135498987 
H  -3.9960123560788676  -3.811990145619169  -1.3868663427944008 
C  -2.9974710358883443  -2.9701089012107795  0.12423560353005347 
H  -3.438659168087169  -3.468581175155742  0.8017084178296768 
C  -2.0389854250767776  -2.015940632791841  0.4912562833419403 
H  -1.8619130127668426  -1.8492165108145995  1.4101568590026907 

-Pd 0
lanl2dz
F 1 1.0
1.472 1.0
****
-H 0
6-31g(d,p)
****
-P 0
6-31+g(d)
****
-N 0
6-31+g(d)
****
-C 0
6-31g(d)
****
-Br 0
6-31+g(d)
****

-Pd 0
lanl2dz


