%chk=XUPEDUXI_PN_Pd_gaussain.chk
%nprocshared=32
%mem=64GB
#p opt rwb97xd/gen pseudo=read

This Gaussian input file was generated using the DART python program. This file was generated on the 2023-08-11 at 15:55:49

0 0
Pd  0.0  0.0  0.0 
C  2.7981711904012267  -1.2830775321402221  -0.15514003135924104 
C  1.1128724184777128  -2.4042251371981704  0.9602377508410375 
H  0.19997575491665653  -2.565531507484808  1.0406884597506583 
C  3.244171677891522  -2.800656394612986  1.6647822667992218 
C  4.13456770585721  -3.477596628250313  2.5110798583508154 
H  3.809577208029303  -4.107518882805281  3.115123713992086 
C  5.460251012275208  -3.219644694163413  2.4572847769261856 
H  6.041408471426738  -3.6847204450382907  3.014011930584735 
C  5.971034475769883  -2.2581363382982174  1.5686548511292906 
H  6.8776170350540795  -2.060960141298535  1.5778478124856472 
C  5.152691458872109  -1.6107307068489796  0.6975151407139644 
H  5.504718211995185  -0.9965414883450334  0.09466814606343905 
C  3.749136507572705  -1.8780170036670842  0.7112218622835591 
C  3.2641449762890646  -0.3040661787630094  -1.1879294100923452 
C  2.8937797570946495  1.034550206271865  -1.1006941641923256 
C  3.5495544659291363  1.9871496925298435  -1.9325956066926226 
H  3.3355229722454567  2.8884582113501627  -1.8546671548059366 
C  4.486654555101529  1.59682703866534  -2.8393154690279125 
H  4.958580731391496  2.241012991220473  -3.3151900876649516 
C  4.750993224893557  0.24562342098909645  -3.0688015932951966 
C  5.594675075714961  -0.2119463427993365  -4.094784982956648 
H  6.025613256286288  0.41758555400314357  -4.626665162540499 
C  5.807504895601224  -1.5227133305819716  -4.345361800532439 
H  6.373709734531357  -1.7812362670736117  -5.037095645070845 
C  5.1656194349847695  -2.4939712191780923  -3.548323702767345 
H  5.281323087895709  -3.397038404157415  -3.733793927106935 
C  4.36746976671925  -2.101589603144506  -2.495308928679845 
H  3.9765106883741335  -2.7481495569038503  -1.9547796646669888 
C  4.138407471737624  -0.7431933302595024  -2.2242797774250667 
C  2.1886270896118556  1.3467991013589862  1.6530681263946785 
C  1.4706043879276778  0.6528213562529247  2.631801828258318 
H  0.6025444482429506  0.3707524724329779  2.4550145665703633 
C  2.050622290873681  0.3830127526860972  3.860665852348638 
H  1.5732809488803148  -0.0775947691521256  4.513530006710057 
C  3.3348014153507526  0.8005457857065171  4.110592626812894 
H  3.729493612508152  0.5910660482154776  4.925498234281513 
C  4.053962707228645  1.5211532392396068  3.1849168389815805 
H  4.913483270648284  1.8251541384400856  3.372390342027049 
C  3.4470018336706576  1.7830171997773532  1.945494927709551 
H  3.9172078537316666  2.266823848717438  1.3065547699954252 
C  1.2238565242482882  3.2438729833018067  -0.39215261050844874 
C  1.5393321238251194  4.2758368427055  0.4764743744259912 
H  1.8926891485823643  4.091670384780849  1.317049641032269 
C  1.3210432282453293  5.580816810633287  0.08098248908097389 
H  1.5122611438793532  6.278236572680812  0.6667095537161676 
C  0.8205333516675389  5.863815634227369  -1.181734331624479 
H  0.7016899525783641  6.748172373622641  -1.4465462535220852 
C  0.49704360031214034  4.8410771534254655  -2.0442821915459253 
H  0.15271428770357032  5.023789981820396  -2.888154028271406 
C  0.6922007203649629  3.550011504205642  -1.6360477516743044 
H  0.4627058916846809  2.855537049781405  -2.209790948375732 
N  1.5007227975212478  -1.4966399316468877  3.815705521250559e-16 
N  1.887121755544733  -3.050577018198384  1.7592610483604392 
P  1.5007227975212478  1.4966399316468877  -4.0533013510177873e-16 
Br  -1.654629867976521  1.654629867976521  0.0 
C  -1.352040782177733  -1.3199206589279684  -0.4819701001757076 
C  -1.6380700204479186  -1.599217458033982  -1.8139382277462257 
H  -1.1579680913617836  -1.159339363685303  -2.503515938957912 
C  -2.63068216563725  -2.52632649780156  -2.142289956238523 
H  -2.8368222554424674  -2.694399528648736  -3.0538898079700485 
C  -3.3101544432602585  -3.1961573187854975  -1.1619874135498987 
H  -3.9960123560788676  -3.811990145619169  -1.3868663427944008 
C  -2.9974710358883443  -2.9701089012107795  0.12423560353005347 
H  -3.438659168087169  -3.468581175155742  0.8017084178296768 
C  -2.0389854250767776  -2.015940632791841  0.4912562833419403 
H  -1.8619130127668426  -1.8492165108145995  1.4101568590026907 

-Pd 0
lanl2dz
F 1 1.0
1.472 1.0
****
-P 0
6-31+g(d)
****
-H 0
6-31g(d,p)
****
-N 0
6-31+g(d)
****
-Br 0
6-31+g(d)
****
-C 0
6-31g(d)
****

-Pd 0
lanl2dz
