%chk=IZIVAGIF_PN_Ni_gaussain.chk
%nprocshared=32
%mem=64GB
#p opt rwb97xd/gen pseudo=read

This Gaussian input file was generated using the DART python program. This file was generated on the 2023-08-11 at 15:55:49

0 0
Ni  0.0  0.0  0.0 
P  1.4908609702115085  1.3628769451054632  2.7203693539586206e-15 
N  1.490860970211508  -1.3628769451054632  1.1102230246251565e-16 
N  3.6825980833810115  -1.7064837884685398  -0.7354451807916242 
C  2.680371615443452  -0.9083800352967302  -0.35169865489397595 
C  1.7204146996761749  3.1335184682939436  0.2082373205014999 
C  1.6683614394243245  3.97487110406787  -0.9342881016985674 
C  2.9042446941671347  0.55062608931427  -0.2422241237446071 
C  1.165096939578104  3.6421905736441103  -2.3515744234668734 
C  2.433746971245732  5.812569033433159  0.469755732405282 
C  2.410472773197491  4.9622722262549255  1.5555958317789158 
H  2.6605396911686547  5.308224134600924  2.3830989518021433 
C  2.0414691492121246  3.6444310180297643  1.4956140396306186 
C  0.4573379259379098  2.4374971301924355  3.0113487650485378 
H  -0.11387136708070478  3.2089198355039885  3.008816315838842 
H  0.36747872496671996  1.9760855792388474  3.8485042551741353 
H  0.20793106125783223  1.8502664210119613  2.295281701118158 
C  4.897860263135266  -1.3314377787494118  -1.4856806005451335 
H  5.131444699757759  -2.066744879364025  -2.0732081562848395 
H  5.624829529401578  -1.2224154561298874  -0.8534016122220173 
C  1.2560107389715636  -2.7927209798133843  -0.07838217461082668 
H  1.0397456865722083  -3.0388179816039935  -0.9921605026644047 
H  0.5058545650594319  -3.0332238155075  0.4866398610343457 
C  1.9109375877688957  2.8793192970157238  2.8260838573394502 
C  2.4929002714414485  -3.5311588252948196  0.37109343410137346 
H  2.708386517578845  -3.2919551824635347  1.2862410915763207 
H  2.3394370856231403  -4.487512580988544  0.3329668742119183 
C  2.8331014403598394  7.296088827543069  0.6441872619023481 
C  2.0401303415702845  5.304084212049396  -0.7352278671782566 
H  2.0193929831054174  5.877950816667526  -1.4658642419009857 
C  3.626844943177695  -3.1542459522399104  -0.540871969610041 
H  4.463485368815799  -3.461261619723831  -0.15914380964863178 
H  3.5107559297778406  -3.5897455269678904  -1.3984199982239547 
C  4.800834321642882  -0.09241802273664135  -2.3077300339051825 
H  3.931881434311037  -0.0695173235120432  -2.7369059507186764 
H  5.473519237110223  -0.12725613498919497  -3.0062181944615447 
C  4.988148296070149  1.1840410047989511  -1.5189705483792286 
H  5.934513812072352  1.334166557758662  -1.3759774070386692 
H  4.643055528317033  1.9308589318725056  -2.0346801715646605 
C  4.289693387546636  1.1395240509992046  -0.19279762542240192 
H  4.230845892537992  2.0420371131046164  0.15906489753269035 
H  4.826530253225286  0.6190322651871645  0.42447911199002786 
C  2.2288032150236483  3.7848585420900465  4.032194515048833 
H  3.1290759405196256  4.10934993992918  3.9599501903133603 
H  2.13494614083399  3.2808179920851135  4.844541832133904 
H  1.6202395629245478  4.525988842685042  4.043896603912924 
C  2.8378601691926484  1.6721428194118064  2.9524174631873947 
H  2.6016041981848494  1.0181783597437102  2.2909919634868015 
H  2.747067837049271  1.2906757604325607  3.827006861326733 
H  3.7461147355302122  1.9508218126723533  2.8165032570046704 
C  0.9951098074150758  2.2275426504225413  -2.7380139248430964 
H  1.8460196391202437  1.784995652936038  -2.7086136982594207 
H  0.6392004742654374  2.180999853416689  -3.628318774107585 
H  0.3906825919139487  1.7998263719327832  -2.1281048363090447 
C  4.171280389928759  7.371876594275014  1.3654267320815863 
H  4.770551767919944  6.719333084610478  0.994003801293456 
H  4.042163211103137  7.192450589690956  2.2996759028123686 
H  4.545287349436441  8.248806271816456  1.2558621625945237 
C  2.074600262735717  4.245968924987726  -3.377925122601469 
H  2.953067096284533  3.8694798796320606  -3.2886979906183904 
H  2.1185752443255144  5.197080718062846  -3.2468368772565612 
H  1.7346120651221688  4.05963536720614  -4.256054971045297 
C  1.8627715579333506  7.979070286979211  1.561086697683998 
H  2.2311433645735175  8.817903289551968  1.8505475514577618 
H  1.696965899359776  7.42251092355018  2.3238002012779 
H  1.0381005347788013  8.136199656412803  1.093916562903689 
C  -0.17269508751449236  4.2787444519055615  -2.4968911200912776 
H  -0.49570794639949756  4.145662114097018  -3.391598225438261 
H  -0.09950942324726308  5.2201322526220215  -2.3212420175943063 
H  -0.7850157195559877  3.8832045449932133  -1.8724085938216524 
C  2.934934340503334  8.013248350646137  -0.6150085524454373 
H  2.0554029893812826  8.164591427319902  -0.9708194791134607 
H  3.446513878116181  7.494580584976876  -1.2386289382183002 
H  3.3687104543666537  8.856681005463738  -0.468797130767881 
Br  -1.5839191898578664  1.5839191898578664  0.0 
C  -1.2937473829822488  -1.2398794889499034  -0.4598005675376139 
C  -1.601562203225019  -1.4938654694550033  -1.7919791134336869 
H  -1.1309417375171225  -1.0428217585005106  -2.480879663633267 
C  -2.60218398542082  -2.411889969420291  -2.121542410022959 
H  -2.8231586547736818  -2.5626138747145775  -3.03270050271447 
C  -3.2683208079706407  -3.09759503004543  -1.143064365570095 
H  -3.9596020908062854  -3.707191723557817  -1.3683280760515548 
C  -2.9347449854640226  -2.896087320001541  0.14198826503765638 
H  -3.3668350933519986  -3.405606940434718  0.8171022443470677 
C  -1.9675509241539992  -1.9516175659140573  0.5112421903797603 
H  -1.7755298364628027  -1.8022912010877177  1.4301324877763764 

-Ni 0
lanl2dz
F 1 1.0
3.130 1.0
****
-P 0
6-31+g(d)
****
-H 0
6-31g(d,p)
****
-N 0
6-31+g(d)
****
-Br 0
6-31+g(d)
****
-C 0
6-31g(d)
****

-Ni 0
lanl2dz
