%chk=QITOPEWU_PN_Ni_gaussain.chk
%nprocshared=32
%mem=64GB
#p opt rwb97xd/gen pseudo=read

This Gaussian input file was generated using the DART python program. This file was generated on the 2023-08-11 at 15:55:49

0 0
Ni  0.0  0.0  0.0 
P  1.300791176553715  -1.5453291930847608  -4.494019838877511e-15 
N  1.300791176553716  1.5453291930847608  -2.4096942942443347e-15 
C  0.6815512784702766  2.237668178064591  -1.1637563226460916 
C  1.720515405355544  2.6367997208841305  0.9263802290107962 
C  2.504344590991609  0.8518650594907876  -0.48368136620474245 
C  2.180710374709876  -0.41714147567044607  -1.1597194182179391 
C  2.721992752416646  -2.2278831141004414  0.9686707519435498 
C  0.6127947287213404  -2.8770587230834317  -1.0999515928892505 
C  2.3364830648240917  -3.0200360647325315  2.1947498821701448 
C  3.752847519986482  -3.00434253476589  0.14628878093588696 
C  0.3503283767381564  -4.187524751333067  -0.3688328864671818 
C  1.4267788697771788  -3.114752258961553  -2.375595599307734 
H  0.39016011398939654  1.5926325769379346  -1.7952937107251066 
H  -0.06242404855030692  2.7491491968255217  -0.8642384096059655 
H  1.320993683578152  2.8120880259340613  -1.5655470379737122 
H  2.126784311115962  2.25532176289433  1.6933215590877304 
H  2.340780439023396  3.2016622006108832  0.48196715876423546 
H  0.9573513429855214  3.1386254862098912  1.1833772234720434 
H  3.0691554009120416  0.6734988471436403  0.253914548432793 
H  2.9534541094952775  1.419145050008585  -1.10000873274587 
H  1.6281106510636048  -0.24251459926923213  -1.9077382277838726 
H  2.9877410225281595  -0.829827774391666  -1.4438867673800055 
H  3.136946863383526  -1.4318039482469282  1.2705343924928252 
H  -0.22409843892369352  -2.529987673497312  -1.3728047630893951 
H  1.6994978377085033  -2.5386517691863872  2.695968677147005 
H  1.9701429857619086  -3.855918571696307  1.925185157058217 
H  3.1124699471012676  -3.1761107872442755  2.721590901384343 
H  3.986920089929545  -2.4908859369415066  -0.6214850882149662 
H  4.528829304060551  -3.1507528245685177  0.6748643647696052 
H  3.3838665688935965  -3.8311462576991944  -0.12250039569558366 
H  -0.1542205868267521  -4.0067741279384315  0.4146060553196301 
H  -0.1416823538750993  -4.764909300847016  -0.9392263059102813 
H  1.1747866899479111  -4.587196049697081  -0.1373859745340869 
H  1.5766941316434038  -2.2917389840610753  -2.807151799120901 
H  2.2541575935138187  -3.5201198064091868  -2.1431075587890023 
H  0.938232019256126  -3.6983444081525976  -2.9468592146803307 
Br  -1.5839191898578664  1.5839191898578664  0.0 
C  -1.2937473829822488  -1.2398794889499034  -0.4598005675376139 
C  -1.601562203225019  -1.4938654694550033  -1.7919791134336869 
H  -1.1309417375171225  -1.0428217585005106  -2.480879663633267 
C  -2.60218398542082  -2.411889969420291  -2.121542410022959 
H  -2.8231586547736818  -2.5626138747145775  -3.03270050271447 
C  -3.2683208079706407  -3.09759503004543  -1.143064365570095 
H  -3.9596020908062854  -3.707191723557817  -1.3683280760515548 
C  -2.9347449854640226  -2.896087320001541  0.14198826503765638 
H  -3.3668350933519986  -3.405606940434718  0.8171022443470677 
C  -1.9675509241539992  -1.9516175659140573  0.5112421903797603 
H  -1.7755298364628027  -1.8022912010877177  1.4301324877763764 

-Ni 0
lanl2dz
F 1 1.0
3.130 1.0
****
-P 0
6-31+g(d)
****
-H 0
6-31g(d,p)
****
-N 0
6-31+g(d)
****
-Br 0
6-31+g(d)
****
-C 0
6-31g(d)
****

-Ni 0
lanl2dz
