%chk=VEQEYEVO_PN_Pd_gaussain.chk
%nprocshared=32
%mem=64GB
#p opt rwb97xd/gen pseudo=read

This Gaussian input file was generated using the DART python program. This file was generated on the 2023-08-13 at 16:51:13

0 1
Pd  0.0  0.0  0.0 
P  1.4694698287137447  1.5273370363151675  5.6434421038253495e-15 
N  1.4694698287137438  -1.5273370363151675  -2.220446049250313e-16 
C  2.8424950975731322  0.45948629596066715  0.4873722882951068 
C  4.06774340324607  1.0266015720294805  0.8797102970260295 
H  4.141114779204711  1.9497500235340972  0.962540168899414 
C  5.149708569373593  0.24013505780286315  1.140932140076988 
H  5.960113411957857  0.6223994081839548  1.3917724230136141 
C  5.032495498761761  -1.114451949391977  1.0299743732615367 
H  5.775986877479393  -1.6502881437230386  1.1869673432232053 
C  3.8381637936986293  -1.7044119409167693  0.6920408935926929 
H  3.7675155986088207  -2.6304849041000784  0.6517320931709608 
C  2.7320848428048845  -0.9032105388003817  0.41024945008079317 
C  1.723546291579218  -2.241176607462069  -1.2894811079200013 
H  1.9788603701215153  -1.6076254612562968  -1.9625191502619386 
H  0.9240385915608249  -2.6957165017311846  -1.5662491373763259 
H  2.4285051806049296  -2.8806231747739277  -1.1673052005702615 
C  1.0709289553191539  -2.5559826021886884  1.036804375011335 
H  1.7358045753673104  -3.246935996827794  1.0733627707950812 
H  0.22411122726163102  -2.9391761973705357  0.797413034192306 
H  1.0008744460517982  -2.133610699549326  1.8955090457754677 
C  1.9578198234194752  2.2687572029681085  -1.585970699335677 
C  1.0767512881245902  3.112217918821638  -2.241250995792983 
H  0.25392455329357255  3.3011933860154055  -1.8499634196469679 
C  1.387893860827911  3.6767042335646116  -3.4602767378999717 
H  0.7879899618773236  4.2482855147376135  -3.8827448562669433 
C  2.5924587820996154  3.3824921544257953  -4.040390643034606 
H  2.807345825128568  3.7553289752848253  -4.865054261578562 
C  3.4830906213154336  2.5486329702914055  -3.425080007656172 
H  4.297494049808023  2.363090072252546  -3.8349480945412857 
C  3.185801687760362  1.9755362082880668  -2.19344962829432 
H  3.7924309288595968  1.4064008345416341  -1.7785977629328713 
C  1.5681066255073153  2.847432209849575  1.2464786541010204 
C  1.7889127000419145  4.163871592378305  0.8983015733274587 
H  1.8385824822367518  4.404543046196276  0.00194825902897236 
C  1.936400408123156  5.126077385898226  1.8851820761654012 
H  2.0577526498418717  6.016924260326558  1.6498083738299145 
C  1.902859937312086  4.764710872236266  3.2143159443749063 
H  2.017540657670362  5.409098706485649  3.875478338533485 
C  1.7008856431015091  3.4561873031216925  3.560576270646621 
H  1.6887386771048853  3.211610447379868  4.457647986203707 
C  1.5165828909990413  2.5010704622969295  2.590496044098119 
H  1.3557644041688957  1.6180619036530963  2.8355251233017897 
Br  -1.654629867976521  1.654629867976521  0.0 
C  -1.352040782177733  -1.3199206589279684  -0.4819701001757076 
C  -1.6380700204479186  -1.599217458033982  -1.8139382277462257 
H  -1.1579680913617836  -1.159339363685303  -2.503515938957912 
C  -2.63068216563725  -2.52632649780156  -2.142289956238523 
H  -2.8368222554424674  -2.694399528648736  -3.0538898079700485 
C  -3.3101544432602585  -3.1961573187854975  -1.1619874135498987 
H  -3.9960123560788676  -3.811990145619169  -1.3868663427944008 
C  -2.9974710358883443  -2.9701089012107795  0.12423560353005347 
H  -3.438659168087169  -3.468581175155742  0.8017084178296768 
C  -2.0389854250767776  -2.015940632791841  0.4912562833419403 
H  -1.8619130127668426  -1.8492165108145995  1.4101568590026907 

-Pd 0
lanl2dz
F 1 1.0
1.472 1.0
****
-C 0
6-31g(d)
****
-N 0
6-31+g(d)
****
-H 0
6-31g(d,p)
****
-Br 0
6-31+g(d)
****
-P 0
6-31+g(d)
****

-Pd 0
lanl2dz


