%chk=ALUNOWAP_PN_Pd_gaussain.chk
%nprocshared=32
%mem=64GB
#p opt rwb97xd/gen pseudo=read

This Gaussian input file was generated using the DART python program. This file was generated on the 2023-10-04 at 09:55:46

0 1
Pd  0.0  0.0  0.0 
C  2.8381520196219134  1.1629357981341342  -1.1827460027435066 
H  2.434537632818398  1.1955849457921184  -2.0749839530249643 
C  3.391166291271346  -0.2708061142481649  -1.0303197778660416 
H  4.088269421990245  -0.38734099974709224  -1.6951710511623161 
H  3.816944029657269  -0.3280132895655148  -0.15990335649796647 
C  2.45454940854935  -1.432119304094731  -1.1505880616674233 
H  3.0070907813463807  -2.2394430447610887  -1.1139725034434793 
C  3.952472681355893  2.2143064969506296  -1.195868369255285 
H  4.395527499057344  2.2012130970126953  -2.0479829163612666 
H  4.586120532622657  2.017129165281272  -0.5024001648934748 
H  3.5738715846665734  3.0838986744267043  -1.0458641211218889 
C  0.9965463251754461  3.2055836862196685  -0.5033333803393285 
C  1.1561136390473805  4.317513337173348  0.2704926619167705 
H  1.4936618452059474  4.19575339740932  1.1274057412823593 
C  0.8415237123204528  5.648201585049655  -0.14061171043388868 
H  0.9409381998734208  6.385633322052728  0.41630294454047845 
C  0.3973051134225236  5.734065238932965  -1.3920668711707873 
H  0.13226797583024696  6.570001807451606  -1.711245910442128 
C  0.31518407850557084  4.678762090248826  -2.2029827114412357 
H  0.12448258993677341  4.8103793330591555  -3.1024299548372345 
C  0.5024782453701877  3.44390772052607  -1.7356082998234148 
H  0.28361936701008506  2.725328089034296  -2.2796915237589634 
C  1.9924577275605713  1.6762320575043101  1.7673532590596637 
C  3.294572734480163  1.5999941155617867  2.204111206855954 
H  3.989325357233416  1.4783819863251557  1.5971881366073315 
C  3.5603636517801904  1.7156797337915797  3.5640808521111813 
H  4.434464561586335  1.6832986755152977  3.8770250428880093 
C  2.5593590633897216  1.852669460321915  4.393430433919972 
H  2.7619660447085925  1.926021432821671  5.29865435608028 
C  1.2777558618098817  1.9025937313058972  4.048849905063408 
H  0.6064106903164714  1.9918619030929516  4.683638180174318 
C  0.9809441522109679  1.7993453843563383  2.653515662705261 
H  0.09993125976574935  1.8194853911140314  2.357482449242467 
C  1.7598148443854664  -1.454213219327973  -2.483132336453714 
H  1.1841527333525954  -0.6893818427119202  -2.5565631151828496 
H  1.2391696549794602  -2.2560532226496552  -2.5574494665212266 
H  2.4144529469136757  -1.4301468598624631  -3.1849684890280887 
C  2.050385535184648  -1.8743216767128315  1.2887484434334824 
H  2.6681257892900687  -1.1459059128686044  1.5059165429347756 
C  2.8864992376528464  -3.1339031334849112  1.2452454515725233 
C  4.2192979395005334  -3.1308613119081175  1.496948029379502 
H  4.651479104454272  -2.3333553209178968  1.7135730394636044 
C  4.952223418995889  -4.344953875309803  1.427207445791313 
H  5.875795640108921  -4.336496873609063  1.5422272767361838 
C  4.312108177973661  -5.545935600635887  1.187174919570705 
H  4.7652223116127725  -6.353453134576674  1.16978226955184 
C  2.9706847450383718  -5.467309431805074  0.9837834518363601 
H  2.5325327930856236  -6.268846902654682  0.8120275499755768 
C  2.2215718284292167  -4.34422354825572  0.9997279286700438 
H  1.303241633589625  -4.37042247079659  0.85679563804403 
C  0.9761539115655407  -1.8376629852913104  2.328483183239745 
H  1.3590478484113766  -2.0252660758621626  3.189280100947388 
H  0.3093793973699863  -2.4951136616277885  2.124971499535824 
H  0.5734537544256124  -0.9653241252528201  2.3410305617001264 
N  1.4613152047043105  -1.5351409943389562  4.975234374859353e-17 
H  0.975084305265539  -2.356501019020568  -0.22480249617384035 
P  1.4613152047043103  1.5351409943389562  3.404405442932253e-17 
Br  -1.654629867976521  1.654629867976521  0.0 
C  -1.352040782177733  -1.3199206589279684  -0.4819701001757076 
C  -1.6380700204479186  -1.599217458033982  -1.8139382277462257 
H  -1.1579680913617836  -1.159339363685303  -2.503515938957912 
C  -2.63068216563725  -2.52632649780156  -2.142289956238523 
H  -2.8368222554424674  -2.694399528648736  -3.0538898079700485 
C  -3.3101544432602585  -3.1961573187854975  -1.1619874135498987 
H  -3.9960123560788676  -3.811990145619169  -1.3868663427944008 
C  -2.9974710358883443  -2.9701089012107795  0.12423560353005347 
H  -3.438659168087169  -3.468581175155742  0.8017084178296768 
C  -2.0389854250767776  -2.015940632791841  0.4912562833419403 
H  -1.8619130127668426  -1.8492165108145995  1.4101568590026907 

-Pd 0
lanl2dz
F 1 1.0
1.472 1.0
****
-P 0
6-31+g(d)
****
-N 0
6-31+g(d)
****
-C 0
6-31g(d)
****
-H 0
6-31g(d,p)
****
-Br 0
6-31+g(d)
****

-Pd 0
lanl2dz


