%chk=AKEGINUD_PN_Ni_gaussain.chk
%nprocshared=32
%mem=64GB
#p opt rwb97xd/gen pseudo=read

This Gaussian input file was generated using the DART python program. This file was generated on the 2023-08-11 at 15:55:49

0 0
Ni  0.0  0.0  0.0 
P  1.5899842475634782  -1.2458130246951182  1.525680933028959e-16 
N  3.756334303283685  0.8990548784590728  -0.024625476646132738 
N  1.5899842475634782  1.2458130246951187  -1.5256809330289595e-16 
C  5.964103704973419  1.1697394782468515  3.3110170171473308 
H  5.4291452334705825  1.8892210515105097  3.7306417417542157 
H  6.449153037732959  0.6934225685362477  4.0313306962575295 
C  4.996480178872574  0.1654651889278876  2.5975421447452938 
H  4.872493178756527  -0.6265696392851798  3.177417790638211 
H  4.113995802637279  0.597102147557051  2.4826355668395705 
C  5.5083307959264625  -0.29373747123052857  1.2301605291291506 
C  5.050509558322729  0.2541474091406969  0.032383954696493994 
C  5.846348573293333  0.3369039327572574  -1.0979139352642089 
H  5.513689773012367  0.7442056826520128  -1.8887018885919606 
C  7.152046997359914  -0.18789162407198715  -1.0652531189492662 
C  7.451625922144475  -1.0291743400369213  0.00695335353800454 
H  8.21471991151305  -1.592952961770216  -0.0427335568718418 
C  6.663797058192602  -1.0604378837854158  1.1381117694801013 
H  6.914938053460209  -1.6148409292737447  1.8673257323533123 
C  8.224800537700347  0.3463787775100552  -1.9699008734263619 
H  7.828188089104918  0.5578919418265758  -2.851753971702916 
H  8.910585613466512  -0.3546689621487403  -2.1065787669412104 
C  8.922738845489608  1.642266878692086  -1.3968457209889127 
H  9.902936433605658  1.5031587167410487  -1.3910201283097234 
H  8.729139918200994  2.4045787715480915  -1.9996448445475108 
C  8.468221033855874  1.9972329660856771  0.005302204769358143 
C  7.342026990250418  2.8164209740532096  0.22664678624757645 
H  7.076696867179737  3.445065533449802  -0.43435276271775947 
C  6.614289316706148  2.707143400050227  1.4153344114563342 
H  5.861401966408979  3.2675639335976756  1.5638111885661867 
C  6.979602061380189  1.7983960338256197  2.3634633441224335 
C  8.245940711418696  1.2067581031013206  2.269865041002264 
H  8.59278415425479  0.7138579866088988  3.00330880934672 
C  8.993362267841754  1.3371613672988176  1.109595367313939 
H  9.869513225718451  0.9723452263604723  1.069409146756846 
C  2.543789881503833  0.3058281659828056  0.09423798626479314 
C  2.1821147152760685  2.4603711766861016  -0.18010256699647767 
H  1.7425282514191904  3.2970014127964307  -0.27306889864283934 
C  3.5257415947117545  2.2397635698044356  -0.2013699750172628 
H  4.194422862785309  2.9052893859299393  -0.31926925320849303 
C  2.10269091557739  -2.135390873081489  -1.5467093729057169 
C  1.058319313699781  -3.219766436044162  -1.8457203520369034 
H  1.0817394705497074  -3.899835879215493  -1.1410197782342726 
H  1.2588488076610713  -3.637533556537521  -2.709526467485449 
H  0.16644974467050244  -2.815155029670916  -1.8775695541022834 
C  2.06894126748673  -1.0667997493646748  -2.6549518470815485 
H  2.2866879674593354  -1.4821239149846523  -3.5155941375269686 
H  2.725842383989137  -0.3671929161375969  -2.4542579955567185 
H  1.1737463100156187  -0.6712832711832198  -2.6997561281855753 
C  3.509233804973962  -2.7365062372295474  -1.4889884124745525 
H  3.722947252844773  -3.151319648035289  -2.3501226449928487 
H  3.545847126093382  -3.4141302371926194  -0.7821175336072331 
H  4.159408198864396  -2.028967820527157  -1.297113358286976 
C  1.6597124749955618  -2.193651774646363  1.5931861060121302 
C  3.0162181391078784  -2.8723478576375645  1.8546058836947155 
H  2.990034095370231  -3.3326552541992114  2.7185747410756838 
H  3.723258722601102  -2.1937801125243834  1.8681010156159967 
H  3.1997113162262614  -3.521025816513273  1.143811560687109 
C  0.5454387982255542  -3.254014019071672  1.5342595088356288 
H  -0.3102635422246054  -2.818153553466983  1.342714790633884 
H  0.49030623452745736  -3.7178395800072006  2.3963374110248057 
H  0.7485100359735032  -3.9015365557680752  0.8272194556068257 
C  1.3687401572758722  -1.185119924285043  2.681824869389412 
H  1.3064296198525083  -1.6450875266788574  3.5451448863437776 
H  0.5202290773770828  -0.7343941340827632  2.4905207676677508 
H  2.090689922253836  -0.5229971669781276  2.7158267973429 
Br  -1.5839191898578664  1.5839191898578664  0.0 
C  -1.2937473829822488  -1.2398794889499034  -0.4598005675376139 
C  -1.601562203225019  -1.4938654694550033  -1.7919791134336869 
H  -1.1309417375171225  -1.0428217585005106  -2.480879663633267 
C  -2.60218398542082  -2.411889969420291  -2.121542410022959 
H  -2.8231586547736818  -2.5626138747145775  -3.03270050271447 
C  -3.2683208079706407  -3.09759503004543  -1.143064365570095 
H  -3.9596020908062854  -3.707191723557817  -1.3683280760515548 
C  -2.9347449854640226  -2.896087320001541  0.14198826503765638 
H  -3.3668350933519986  -3.405606940434718  0.8171022443470677 
C  -1.9675509241539992  -1.9516175659140573  0.5112421903797603 
H  -1.7755298364628027  -1.8022912010877177  1.4301324877763764 

-Ni 0
lanl2dz
F 1 1.0
3.130 1.0
****
-P 0
6-31+g(d)
****
-H 0
6-31g(d,p)
****
-N 0
6-31+g(d)
****
-Br 0
6-31+g(d)
****
-C 0
6-31g(d)
****

-Ni 0
lanl2dz
