%chk=ATILIKEC_PN_Ni_gaussain.chk
%nprocshared=32
%mem=64GB
#p opt rwb97xd/gen pseudo=read

This Gaussian input file was generated using the DART python program. This file was generated on the 2023-08-11 at 15:55:49

0 0
Ni  0.0  0.0  0.0 
P  1.183276416354183  1.6370573974360223  3.409386620423047e-16 
N  1.1832764163541845  -1.6370573974360227  -8.326672684688674e-16 
C  2.33044398899721  -1.551926448320692  0.7254889535885933 
C  3.038965598223382  -2.7032424546818303  1.0760113819098371 
H  3.820313687319448  -2.630847809151614  1.6125007005029648 
C  2.6173876824121045  -3.9293031555122324  0.6558644685812864 
H  3.131089415036956  -4.705679965507176  0.8505477981201115 
C  1.418621939484262  -4.034166968026607  -0.06430537555802616 
H  1.0801461892975839  -4.878779788056969  -0.3374053769786281 
C  0.7523912058083311  -2.8708731043034037  -0.3605049470121169 
H  -0.06091444632639065  -2.935030457713551  -0.8467784196683368 
C  2.918874316801583  -0.20147344132012335  1.0904622611100856 
H  3.4476945688685596  0.11459882090501439  0.313937196443321 
H  3.5563141390988724  -0.34407743026127613  1.8351834406717447 
C  1.975439283722242  0.9325006959993667  1.499753568431815 
H  2.483568445947026  1.6371915619438426  1.9744201755901312 
H  1.2809866504334861  0.5843908002238454  2.1133656369095326 
C  2.6431240857316975  2.316154368465375  -0.9101793538373968 
C  3.1496491332129617  1.619051403848888  -2.0310759962612686 
C  4.304525683593689  2.0886891521673894  -2.6464338098421205 
H  4.6322323278048225  1.6327984783468525  -3.413852716869674 
C  4.997018856457581  3.2038977745769466  -2.1816304277112493 
C  4.477108462012486  3.8557178980932343  -1.1190987301477509 
H  4.937035518654099  4.624222687216957  -0.8030825570443978 
C  3.316257484659997  3.480901498276698  -0.46209349058844856 
C  2.5252915498049884  0.37245118800046484  -2.5937248209180583 
H  3.010127440717871  0.10037269173173091  -3.4012684486873885 
H  1.5886925102098972  0.5496742441097968  -2.8213302852919186 
H  2.5708220025323296  -0.3445568606106535  -1.928518322076271 
C  6.33188808448675  3.6171055558431715  -2.8074302148332313 
H  6.2098738810647705  4.440866941431793  -3.3241123354610203 
H  6.650048233198896  2.9033675941626513  -3.3987363722742283 
H  6.991084973656653  3.7703205655263017  -2.0976903173239307 
C  2.8559511818674688  4.292239287703174  0.7330341591034513 
H  3.47310512454922  5.038168047997434  0.8795539038420368 
H  2.8386516742722194  3.720584856731048  1.528469617570651 
H  1.955701591264915  4.641094407807367  0.5626087801335318 
C  0.022252585093613275  3.0205972437159194  0.30166843885440187 
C  -0.5025893368850822  3.634119837103944  -0.8722602788862381 
C  -1.50494818393647  4.596929331425049  -0.7306396257913517 
H  -1.835841093540054  5.031463820633636  -1.5079330839281813 
C  -2.031929344330477  4.94219544175524  0.5011145622053004 
C  -1.5086173019902984  4.356902139577395  1.6475604382795113 
H  -1.8535334615444647  4.608412255010652  2.4962667978133366 
C  -0.4801034664848276  3.3990054723890437  1.580090110258282 
C  -0.045556129478545815  3.2824432673625936  -2.2603946123074383 
H  -0.6530744480861808  3.6821390239223892  -2.9162904765604893 
H  -0.044879496338970704  2.307841987347088  -2.366327926990457 
H  0.861327975501866  3.6256823565234613  -2.4022415643576536 
C  -3.2017120665513445  5.92186024612425  0.5945914249798228 
H  -4.0399850871195095  5.422144535922971  0.6981490030007691 
H  -3.2426648353903644  6.460579454370256  -0.222982538274403 
H  -3.0749750257825585  6.510765831542296  1.367548425052029 
C  -0.03767461776153458  2.8360915718481725  2.897450852194712 
H  -0.29266933872259027  1.8916241802823093  2.95240609353498 
H  -0.4639730686569492  3.333873599085765  3.625276575924905 
H  0.9374010989102093  2.9173714281369016  2.975438939226042 
Br  -1.5839191898578664  1.5839191898578664  0.0 
C  -1.2937473829822488  -1.2398794889499034  -0.4598005675376139 
C  -1.601562203225019  -1.4938654694550033  -1.7919791134336869 
H  -1.1309417375171225  -1.0428217585005106  -2.480879663633267 
C  -2.60218398542082  -2.411889969420291  -2.121542410022959 
H  -2.8231586547736818  -2.5626138747145775  -3.03270050271447 
C  -3.2683208079706407  -3.09759503004543  -1.143064365570095 
H  -3.9596020908062854  -3.707191723557817  -1.3683280760515548 
C  -2.9347449854640226  -2.896087320001541  0.14198826503765638 
H  -3.3668350933519986  -3.405606940434718  0.8171022443470677 
C  -1.9675509241539992  -1.9516175659140573  0.5112421903797603 
H  -1.7755298364628027  -1.8022912010877177  1.4301324877763764 

-Ni 0
lanl2dz
F 1 1.0
3.130 1.0
****
-P 0
6-31+g(d)
****
-H 0
6-31g(d,p)
****
-N 0
6-31+g(d)
****
-Br 0
6-31+g(d)
****
-C 0
6-31g(d)
****

-Ni 0
lanl2dz
