%chk=ILUMEXUM_PN_Ni_gaussain.chk
%nprocshared=32
%mem=64GB
#p opt rwb97xd/gen pseudo=read

This Gaussian input file was generated using the DART python program. This file was generated on the 2023-10-04 at 09:55:46

0 1
Ni  0.0  0.0  0.0 
P  1.372905624032475  1.481630907986196  0.0 
C  1.0241733903450903  2.4654533850572404  -2.553427168101219 
H  0.4214171649038344  1.7361108820253937  -2.6414211222291426 
C  1.6635935774521164  2.6898328294978646  -1.3378382453018205 
C  1.2631828916088477  3.3043596526710775  -3.6429640892121617 
H  0.8220825338369402  3.1499563807314153  -4.470594637215201 
C  2.776342953119524  4.588849247712471  -2.3076620490431425 
H  3.3750115427419676  5.321758644477104  -2.2248167357564386 
C  2.1445357807652616  4.360145328825839  -3.5091587425249218 
H  2.3140783765907544  4.929979776426244  -4.2501483716889865 
C  2.5492726273095565  3.767510597552955  -1.2230975424826622 
H  2.9937748625810934  3.9327627319949836  -0.3990599614822645 
N  1.372905624032475  -1.481630907986196  0.0 
C  2.67875186126698  -0.9849191587690576  -0.08577134072745536 
C  1.2053256188749533  -2.779113394776968  0.05048592222232651 
H  0.3150104651042769  -3.1057633737908446  0.12390886261931103 
C  2.259664122612174  -3.738821569961208  0.001428527043464507 
C  3.797609270300467  -1.8468976974969356  -0.17442531426201263 
C  3.580733357510163  -3.2772315907608207  -0.12636782543923086 
C  5.07177364054052  -1.279604952408069  -0.31600966714166434 
H  5.830603912629763  -1.846061524335778  -0.3916941456091227 
C  1.9828640677356457  -5.124859255818619  0.050359631704945555 
H  1.0877006357130505  -5.430920227249315  0.143878516089011 
C  5.240121557726478  0.08165521308167012  -0.3453911345999342 
H  6.111278870165031  0.4472263597690649  -0.45204071825835496 
C  4.619910802118075  -4.224444282150676  -0.192178583588605 
H  5.52292487631141  -3.936865130215239  -0.2706708327654359 
C  3.0170998256220356  -6.028701678909105  -0.03721668547670022 
H  2.8383431531197933  -6.961405814298857  -0.025740716551194844 
C  4.323989372648605  -5.568555885293984  -0.14268478724725597 
H  5.032921617744232  -6.199900429308258  -0.18117372860825348 
C  1.6030156623314507  2.4322657742056055  1.5462716777468637 
C  1.0698872944307725  3.713707923371199  1.6724744181348263 
H  0.635657212720419  4.11665171442065  0.9301837827415662 
C  1.1676183743782438  4.409960484950192  2.8753180474179825 
H  0.8088233688255627  5.286437145230622  2.946659676037756 
C  2.204927605032071  1.846766068898377  2.658537638890858 
H  2.5654511399906994  0.9706912732097241  2.5931019979905727 
C  2.282002572580679  2.537069351913804  3.867826507125208 
H  2.6759390783900034  2.121741167490067  4.625597276298887 
C  1.7866587739402926  3.8245773471356297  3.9653025728459483 
H  1.871442677508651  4.306573994310497  4.778702696898 
C  2.8630391727015927  0.42220447692349894  -0.09704789691996496 
C  4.140950173360321  0.9359549770629649  -0.22050986678070364 
H  4.272996963545052  1.8765533693401486  -0.2198698296779295 
Br  -1.5839191898578664  1.5839191898578664  0.0 
C  -1.2937473829822488  -1.2398794889499034  -0.4598005675376139 
C  -1.601562203225019  -1.4938654694550033  -1.7919791134336869 
H  -1.1309417375171225  -1.0428217585005106  -2.480879663633267 
C  -2.60218398542082  -2.411889969420291  -2.121542410022959 
H  -2.8231586547736818  -2.5626138747145775  -3.03270050271447 
C  -3.2683208079706407  -3.09759503004543  -1.143064365570095 
H  -3.9596020908062854  -3.707191723557817  -1.3683280760515548 
C  -2.9347449854640226  -2.896087320001541  0.14198826503765638 
H  -3.3668350933519986  -3.405606940434718  0.8171022443470677 
C  -1.9675509241539992  -1.9516175659140573  0.5112421903797603 
H  -1.7755298364628027  -1.8022912010877177  1.4301324877763764 

-Ni 0
lanl2dz
F 1 1.0
3.130 1.0
****
-P 0
6-31+g(d)
****
-N 0
6-31+g(d)
****
-C 0
6-31g(d)
****
-H 0
6-31g(d,p)
****
-Br 0
6-31+g(d)
****

-Ni 0
lanl2dz


