%chk=ANUREHEW_PN_Ni_gaussain.chk
%nprocshared=32
%mem=64GB
#p opt rwb97xd/gen pseudo=read

This Gaussian input file was generated using the DART python program. This file was generated on the 2023-08-11 at 15:55:49

0 0
Ni  0.0  0.0  0.0 
P  1.4422729448686196  -1.4141954435296418  2.1254526573792548e-16 
N  1.4422729448686196  1.4141954435296418  -6.216668986621906e-17 
H  1.1783252600555851  2.0819702651221883  -0.5748297376866349 
H  1.5825739506993073  1.8014633013817951  0.8231281334260879 
C  1.5720860336476332  -2.8162801900701506  1.1218338092160187 
C  2.7323494302585027  0.8787831365077875  -0.48062341113774043 
H  3.4642792106569607  1.5073070997738087  -0.259442480300029 
H  2.7061211009447135  0.7611745020287486  -1.462402033759663 
C  2.9732871342656964  -0.4551561882376469  0.1962380153636108 
H  3.179057898477576  -0.32476549800902604  1.155308200750151 
H  3.733035641840578  -0.92607309936687  -0.22979611243630949 
C  1.4973612236132032  -2.0663909687096584  -1.6777625632014177 
H  2.3162877999667493  -2.590175742157398  -1.79842761052739 
H  1.4875703709954855  -1.3238075762904702  -2.317227139630959 
H  0.7174653381943134  -2.6391512075479064  -1.8314855826638572 
C  1.6252421773642287  -2.579025147611114  2.49581213845303 
H  1.5466611090215316  -1.692298902849517  2.8281757383690254 
C  1.6589053712548787  -4.126640128987008  0.6442770135369534 
H  1.6054539395537395  -4.298587935856677  -0.2889156333274662 
C  1.7940138886538084  -3.6439066722194444  3.3763112571443825 
H  1.8359652688166894  -3.4831859698300254  4.311885277479463 
C  1.8234230130910798  -5.182715399087181  1.5399676685108294 
H  1.8816686563127458  -6.073450060808353  1.2170350324175312 
C  1.9008784974319872  -4.932968122912623  2.892678977692831 
H  2.028609474837548  -5.654371278090173  3.498495010091214 
Br  -1.5839191898578664  1.5839191898578664  0.0 
C  -1.2937473829822488  -1.2398794889499034  -0.4598005675376139 
C  -1.601562203225019  -1.4938654694550033  -1.7919791134336869 
H  -1.1309417375171225  -1.0428217585005106  -2.480879663633267 
C  -2.60218398542082  -2.411889969420291  -2.121542410022959 
H  -2.8231586547736818  -2.5626138747145775  -3.03270050271447 
C  -3.2683208079706407  -3.09759503004543  -1.143064365570095 
H  -3.9596020908062854  -3.707191723557817  -1.3683280760515548 
C  -2.9347449854640226  -2.896087320001541  0.14198826503765638 
H  -3.3668350933519986  -3.405606940434718  0.8171022443470677 
C  -1.9675509241539992  -1.9516175659140573  0.5112421903797603 
H  -1.7755298364628027  -1.8022912010877177  1.4301324877763764 

-Ni 0
lanl2dz
F 1 1.0
3.130 1.0
****
-P 0
6-31+g(d)
****
-H 0
6-31g(d,p)
****
-N 0
6-31+g(d)
****
-Br 0
6-31+g(d)
****
-C 0
6-31g(d)
****

-Ni 0
lanl2dz
