%chk=UGOMURUK_PN_Ni_gaussain.chk
%nprocshared=32
%mem=64GB
#p opt rwb97xd/gen pseudo=read

This Gaussian input file was generated using the DART python program. This file was generated on the 2023-08-13 at 16:51:13

0 1
Ni  0.0  0.0  0.0 
C  1.2867011104523371  2.7323717085757027  -0.21058701026494728 
H  0.4047796384044504  3.080810304905273  -0.2635549414005567 
C  2.341023817517669  3.5928376651443754  -0.3501320816677715 
H  2.188634985885459  4.525157359979608  -0.44777628587933715 
C  3.6448322964333437  3.0847414658772694  -0.34726108916499515 
H  4.3895863481458965  3.6578290193568153  -0.48258347646489047 
C  3.821784470211762  1.7324357826847343  -0.14485457395301488 
H  4.6969837099989435  1.3627089552913512  -0.13601976882958855 
C  2.7156336641246686  0.9138896719817058  0.04606621812007278 
C  1.6305871153227387  -2.200077354121198  -1.6238058749687727 
C  2.596619081381458  -1.7173395218853256  -2.5213667174084016 
H  3.1623565053470575  -0.9891580502051851  -2.290475159688066 
C  2.699197863310717  -2.3517499108559887  -3.7800161371691523 
H  3.365013518835232  -2.0668313814933033  -4.395160619778131 
C  1.841799644250368  -3.3870932211618756  -4.133978428602845 
H  1.9177448772448389  -3.799207400888589  -4.986609388897866 
C  0.8790993703772694  -3.8132900397135776  -3.2417900715048917 
H  0.290912295728176  -4.519880847881061  -3.4834657116281194 
C  0.7615237036066861  -3.2131307300137824  -1.9851147373138576 
H  0.08800579292057464  -3.501002284821272  -1.3798816070923339 
C  1.5558416868412328  -2.6963860262396766  1.2587977680770899 
C  1.2177804034845066  -2.362324163109622  2.56210336934538 
H  0.8790777016841622  -1.497366976550104  2.7561872821567985 
C  1.3721537047018617  -3.2863594068083444  3.5819860892077706 
H  1.1443085059074187  -3.055373144489816  4.475250015495207 
C  1.8570499779411445  -4.534976924335289  3.2935153123108507 
H  1.9699501193032878  -5.165761144344722  3.9961899709314066 
C  2.1842042640010324  -4.896074709818602  2.0037402805972966 
H  2.497428712494589  -5.773528330008169  1.8225690652176745 
C  2.054128343949114  -3.9717384729814844  0.9657355665942942 
H  2.29974153328805  -4.203053805627422  0.07725183117440998 
C  5.959460476287255  -1.8734408510458025  2.584113012033582 
H  6.645535742705613  -2.180373740047693  3.1654054173323365 
C  5.742675434800369  -2.4782259485377347  1.3774138607787116 
H  6.274253385274174  -3.2184602768026886  1.109482896110208 
C  4.732219310170481  -1.9968994346421964  0.5435298237452769 
H  4.57111283143963  -2.3791545306602426  -0.31200304767416176 
C  3.9739042522979418  -0.9385339779566659  1.0179086735042133 
C  5.165605933173296  -0.8121443981645263  2.936314677956609 
H  5.344935096858475  -0.38177474919952137  3.7636274581683886 
N  2.8416688071765828  -0.46767868153931735  0.24517241406859883 
N  1.4459870711731833  1.410397599969597  -2.966007370089533e-15 
N  4.146400555346927  -0.3391346383532634  2.18702137428094 
P  1.4459870711731833  -1.410397599969597  0.0 
Br  -1.5839191898578664  1.5839191898578664  0.0 
C  -1.2937473829822488  -1.2398794889499034  -0.4598005675376139 
C  -1.601562203225019  -1.4938654694550033  -1.7919791134336869 
H  -1.1309417375171225  -1.0428217585005106  -2.480879663633267 
C  -2.60218398542082  -2.411889969420291  -2.121542410022959 
H  -2.8231586547736818  -2.5626138747145775  -3.03270050271447 
C  -3.2683208079706407  -3.09759503004543  -1.143064365570095 
H  -3.9596020908062854  -3.707191723557817  -1.3683280760515548 
C  -2.9347449854640226  -2.896087320001541  0.14198826503765638 
H  -3.3668350933519986  -3.405606940434718  0.8171022443470677 
C  -1.9675509241539992  -1.9516175659140573  0.5112421903797603 
H  -1.7755298364628027  -1.8022912010877177  1.4301324877763764 

-Ni 0
lanl2dz
F 1 1.0
3.130 1.0
****
-C 0
6-31g(d)
****
-N 0
6-31+g(d)
****
-H 0
6-31g(d,p)
****
-Br 0
6-31+g(d)
****
-P 0
6-31+g(d)
****

-Ni 0
lanl2dz


