%chk=UGIQIHAV_PN_Ni_gaussain.chk
%nprocshared=32
%mem=64GB
#p opt rwb97xd/gen pseudo=read

This Gaussian input file was generated using the DART python program. This file was generated on the 2023-08-11 at 15:55:49

0 0
Ni  0.0  0.0  0.0 
P  1.372905624032475  -1.481630907986196  1.8144745489830815e-16 
C  1.0241733903450903  -2.46545338505724  2.5534271681012193 
H  0.4214171649038344  -1.7361108820253934  2.6414211222291426 
C  1.6635935774521164  -2.6898328294978646  1.3378382453018207 
C  1.2631828916088477  -3.304359652671077  3.642964089212162 
H  0.8220825338369402  -3.149956380731415  4.470594637215201 
C  2.776342953119524  -4.588849247712471  2.307662049043143 
H  3.3750115427419676  -5.321758644477104  2.224816735756439 
C  2.1445357807652616  -4.360145328825839  3.509158742524922 
H  2.3140783765907544  -4.929979776426243  4.250148371688987 
C  2.5492726273095565  -3.767510597552955  1.2230975424826627 
H  2.9937748625810934  -3.9327627319949836  0.399059961482265 
N  1.372905624032475  1.481630907986196  -1.8144745489830815e-16 
C  2.67875186126698  0.9849191587690576  0.08577134072745524 
C  1.2053256188749533  2.779113394776968  -0.05048592222232685 
H  0.3150104651042769  3.1057633737908446  -0.1239088626193114 
C  2.259664122612174  3.738821569961208  -0.0014285270434649649 
C  3.797609270300467  1.8468976974969356  0.1744253142620124 
C  3.580733357510163  3.2772315907608207  0.12636782543923047 
C  5.07177364054052  1.279604952408069  0.3160096671416642 
H  5.830603912629763  1.846061524335778  0.39169414560912247 
C  1.9828640677356457  5.124859255818619  -0.05035963170494618 
H  1.0877006357130505  5.430920227249315  -0.14387851608901167 
C  5.240121557726478  -0.08165521308167008  0.3453911345999342 
H  6.111278870165031  -0.44722635976906483  0.452040718258355 
C  4.619910802118075  4.224444282150676  0.19217858358860448 
H  5.52292487631141  3.936865130215239  0.2706708327654354 
C  3.0170998256220356  6.028701678909105  0.037216685476699485 
H  2.8383431531197933  6.961405814298857  0.02574071655119399 
C  4.323989372648605  5.568555885293984  0.14268478724725528 
H  5.032921617744232  6.199900429308258  0.18117372860825273 
C  1.6030156623314507  -2.4322657742056055  -1.5462716777468635 
C  1.0698872944307725  -3.713707923371199  -1.672474418134826 
H  0.635657212720419  -4.11665171442065  -0.9301837827415657 
C  1.1676183743782438  -4.409960484950192  -2.875318047417982 
H  0.8088233688255627  -5.286437145230622  -2.9466596760377555 
C  2.204927605032071  -1.8467660688983771  -2.6585376388908575 
H  2.5654511399906994  -0.9706912732097245  -2.5931019979905727 
C  2.282002572580679  -2.5370693519138046  -3.8678265071252076 
H  2.6759390783900034  -2.1217411674900672  -4.625597276298887 
C  1.7866587739402926  -3.82457734713563  -3.965302572845948 
H  1.871442677508651  -4.306573994310498  -4.778702696897999 
C  2.8630391727015927  -0.42220447692349894  0.09704789691996502 
C  4.140950173360321  -0.9359549770629649  0.22050986678070375 
H  4.272996963545052  -1.8765533693401486  0.21986982967792973 
Br  -1.5839191898578664  1.5839191898578664  0.0 
C  -1.2937473829822488  -1.2398794889499034  -0.4598005675376139 
C  -1.601562203225019  -1.4938654694550033  -1.7919791134336869 
H  -1.1309417375171225  -1.0428217585005106  -2.480879663633267 
C  -2.60218398542082  -2.411889969420291  -2.121542410022959 
H  -2.8231586547736818  -2.5626138747145775  -3.03270050271447 
C  -3.2683208079706407  -3.09759503004543  -1.143064365570095 
H  -3.9596020908062854  -3.707191723557817  -1.3683280760515548 
C  -2.9347449854640226  -2.896087320001541  0.14198826503765638 
H  -3.3668350933519986  -3.405606940434718  0.8171022443470677 
C  -1.9675509241539992  -1.9516175659140573  0.5112421903797603 
H  -1.7755298364628027  -1.8022912010877177  1.4301324877763764 

-Ni 0
lanl2dz
F 1 1.0
3.130 1.0
****
-P 0
6-31+g(d)
****
-H 0
6-31g(d,p)
****
-N 0
6-31+g(d)
****
-Br 0
6-31+g(d)
****
-C 0
6-31g(d)
****

-Ni 0
lanl2dz
