%chk=TOKUYURI_PN_Pd_gaussain.chk
%nprocshared=32
%mem=64GB
#p opt rwb97xd/gen pseudo=read

This Gaussian input file was generated using the DART python program. This file was generated on the 2023-08-13 at 16:51:13

0 1
Pd  0.0  0.0  0.0 
P  1.5704412564626542  1.4233110201217436  1.3845154012979725e-14 
N  1.570441256462654  -1.423311020121744  -1.3739009929736312e-14 
C  1.577636477447798  -2.724285202027264  -0.23241871011225892 
H  1.0694025434278087  -3.053855003264288  -0.9644083715304879 
C  2.291727429516189  -3.6405169964585795  0.542924640312089 
H  2.247010861677313  -4.567002256080332  0.3436586566010621 
C  3.049908223751278  -3.2080773881800297  1.5765563244457488 
H  3.513728337389699  -3.82804576299411  2.1268459176734584 
C  3.9599142239277794  -1.2618345285111463  2.8387764442468493 
H  4.449495641622766  -1.8320539032832095  3.4187889614241125 
C  4.0536724171110095  0.07924225865286294  2.9875393164323256 
H  4.609943511006613  0.438108362251429  3.66806124097562 
C  3.342344056624367  0.941984507283087  2.148017335781505 
H  3.420016435780537  1.8820317148748276  2.259387255486924 
C  2.5291302900162127  0.43367536769804915  1.1659672003946557 
C  2.4010592884081956  -0.9554093734788192  1.0087569896044204 
C  3.137200852464774  -1.8330979266758272  1.8271990530733693 
C  2.6825856934083188  2.556106064357513  -0.8211191382045627 
C  3.7047068763223003  2.0157502397155422  -1.6268996419485786 
H  3.8392161847196338  1.0760505036130599  -1.6641457413900909 
C  4.5087688781331305  2.86899986880643  -2.3626987705836133 
H  5.200562671805383  2.5045343003774567  -2.9010318333488514 
C  4.329245081147667  4.21497866256026  -2.330859438289954 
H  4.8815982507332905  4.782463350433273  -2.8532698086678323 
C  3.3299895238576394  4.756195507726048  -1.5268877486554064 
H  3.210550945738613  5.6974965312264505  -1.4900007697332822 
C  2.506274898042746  3.9162935375313985  -0.7757343251247595 
H  1.8208478093606701  4.2863178909962825  -0.23177054513227432 
C  0.46197985346773685  2.4471514101690435  0.9972136550301156 
H  0.9916287710946257  3.0348225995120197  1.5761459025969828 
H  -0.10543584902120395  1.8696527760828816  1.5519012772082892 
H  -0.1018113022136442  2.9895343321630667  0.4077917444222501 
Br  -1.654629867976521  1.654629867976521  0.0 
C  -1.352040782177733  -1.3199206589279684  -0.4819701001757076 
C  -1.6380700204479186  -1.599217458033982  -1.8139382277462257 
H  -1.1579680913617836  -1.159339363685303  -2.503515938957912 
C  -2.63068216563725  -2.52632649780156  -2.142289956238523 
H  -2.8368222554424674  -2.694399528648736  -3.0538898079700485 
C  -3.3101544432602585  -3.1961573187854975  -1.1619874135498987 
H  -3.9960123560788676  -3.811990145619169  -1.3868663427944008 
C  -2.9974710358883443  -2.9701089012107795  0.12423560353005347 
H  -3.438659168087169  -3.468581175155742  0.8017084178296768 
C  -2.0389854250767776  -2.015940632791841  0.4912562833419403 
H  -1.8619130127668426  -1.8492165108145995  1.4101568590026907 

-Pd 0
lanl2dz
F 1 1.0
1.472 1.0
****
-C 0
6-31g(d)
****
-N 0
6-31+g(d)
****
-H 0
6-31g(d,p)
****
-Br 0
6-31+g(d)
****
-P 0
6-31+g(d)
****

-Pd 0
lanl2dz


