%chk=OFIPUWUY_PN_Pd_gaussain.chk
%nprocshared=32
%mem=64GB
#p opt rwb97xd/gen pseudo=read

This Gaussian input file was generated using the DART python program. This file was generated on the 2023-10-04 at 09:55:46

0 1
Pd  0.0  0.0  0.0 
P  1.5352331606306584  -1.4612183760478792  -3.1676491416253816e-16 
N  1.5352331606306584  1.4612183760478792  3.761638716043454e-16 
N  2.831123380589406  -1.0428353711383045  -1.0352066745428956 
C  1.1856184515319397  2.496243078577658  0.7911579427238158 
H  0.2646275028746976  2.6188892880270016  0.9888061144815182 
C  2.0928397083870047  3.388743553781966  1.333114161315704 
H  1.7976336589103854  4.106221093200515  1.8809487246487633 
C  3.4380501136697115  3.216384384797804  1.0607205263198072 
H  4.087452065281219  3.8050070431894323  1.4268840024764784 
C  3.81387909566103  2.168283556677764  0.24167644301935426 
H  4.731842801139969  2.031947733596469  0.038202442792900415 
C  2.856579658970459  1.3139450536427488  -0.2815551985542699 
C  3.2863850992966857  0.147227314565986  -1.1341584889476435 
C  4.37235523691397  0.3817727600776641  -2.13647639968917 
C  4.57023063235915  1.6311400619984417  -2.729161647327931 
H  4.045879783093421  2.3752301260316733  -2.457318414045716 
C  5.538725468224351  1.7854383713379445  -3.7209800050111155 
H  5.6619755102921125  2.6316847779458796  -4.135313212023839 
C  6.315832463870262  0.7089195697782943  -4.103036463151506 
H  6.983524106441273  0.8199111762749565  -4.770120501131877 
C  6.125676331723421  -0.5342551088164118  -3.5140301271007806 
H  6.664508501781119  -1.2707892659564775  -3.777904695554962 
C  5.158348609160019  -0.7026615489718954  -2.546190895578051 
H  5.024102500507759  -1.5580665524188582  -2.1541488667219224 
C  1.4618688987860706  -3.25714994795826  -0.2758902392247894 
C  2.188771558050302  -3.897805937743956  -1.2768651523501555 
H  2.7611711217049626  -3.392542352846493  -1.8418828063261392 
C  2.0781919833701066  -5.278345895403167  -1.4540743027060217 
H  2.568078239585067  -5.70878963694792  -2.1452800834520036 
C  1.2521712037799695  -6.020568151691343  -0.6198750615436802 
H  1.1858292360782305  -6.961354623127669  -0.7310838673274485 
C  0.5254307303655121  -5.386416323197203  0.3729273622642521 
H  -0.03647086559224966  -5.896534976383082  0.9446211667889882 
C  0.6116163553680091  -4.011692207399346  0.538902581760207 
H  0.09206490887775987  -3.5823217277473423  1.2084661677274515 
C  2.262958963789647  -1.3675189145270676  1.6732809167403369 
C  3.5366264131381273  -1.8506005685569031  1.936834865695743 
H  4.0605236420450845  -2.2140204643812913  1.2325390948276949 
C  4.048858157474703  -1.805179168109209  3.2233863945803365 
H  4.924914159352733  -2.12955740463398  3.3993147073743075 
C  3.2829098505623344  -1.2860116826497037  4.253895537276176 
H  3.628692055103436  -1.269429195461487  5.137717531877679 
C  2.0245529685338655  -0.7943999346898201  3.998887583048408 
H  1.5064811073976574  -0.4276896579895747  4.705511117655971 
C  1.5063415947808516  -0.8311033089965784  2.707755655464109 
H  0.6373395653053667  -0.48976300136301354  2.5335183828955845 
Br  -1.654629867976521  1.654629867976521  0.0 
C  -1.352040782177733  -1.3199206589279684  -0.4819701001757076 
C  -1.6380700204479186  -1.599217458033982  -1.8139382277462257 
H  -1.1579680913617836  -1.159339363685303  -2.503515938957912 
C  -2.63068216563725  -2.52632649780156  -2.142289956238523 
H  -2.8368222554424674  -2.694399528648736  -3.0538898079700485 
C  -3.3101544432602585  -3.1961573187854975  -1.1619874135498987 
H  -3.9960123560788676  -3.811990145619169  -1.3868663427944008 
C  -2.9974710358883443  -2.9701089012107795  0.12423560353005347 
H  -3.438659168087169  -3.468581175155742  0.8017084178296768 
C  -2.0389854250767776  -2.015940632791841  0.4912562833419403 
H  -1.8619130127668426  -1.8492165108145995  1.4101568590026907 

-Pd 0
lanl2dz
F 1 1.0
1.472 1.0
****
-P 0
6-31+g(d)
****
-N 0
6-31+g(d)
****
-C 0
6-31g(d)
****
-H 0
6-31g(d,p)
****
-Br 0
6-31+g(d)
****

-Pd 0
lanl2dz


