%chk=OWUFETOD_PN_Ni_gaussain.chk
%nprocshared=32
%mem=64GB
#p opt rwb97xd/gen pseudo=read

This Gaussian input file was generated using the DART python program. This file was generated on the 2023-08-13 at 16:51:13

0 1
Ni  0.0  0.0  0.0 
P  1.3817531210386318  -1.4733832877089377  2.28412230331136e-16 
P  2.7945574885345534  1.0680949693321642  -0.6490811491422576 
N  1.3817531210386318  1.4733832877089381  -2.359485639522533e-16 
C  2.54847969070605  -0.649231894022246  -1.1513820269208843 
H  3.398505285699913  -1.1158177822529838  -1.147459430935209 
H  2.191458337329329  -0.67813435637216  -2.052933639921033 
C  1.1114482229202147  -3.0980511185231534  -0.7658476882322168 
C  0.7187319844141895  -3.1556578157811233  -2.0893787700148665 
H  0.5885802374279356  -2.367897971019476  -2.568106876289748 
C  0.5215607903830333  -4.375121284647982  -2.706647097684075 
H  0.2709033019263516  -4.413825531177528  -3.601560693949766 
C  0.6968478910805276  -5.5233458295528255  -1.9887809772917466 
H  0.5604578331479657  -6.346255720084663  -2.402219442074635 
C  1.0638083109096494  -5.484201062891543  -0.6920156371002701 
H  1.17576728401513  -6.27781902690295  -0.22008719385959924 
C  1.2743980708179736  -4.276777468609922  -0.062418744641443515 
H  1.5262721012459364  -4.255124576069239  0.8332767421399837 
C  2.2855613407163387  -1.7900517499428934  1.5230435670293476 
C  3.5403016246731274  -2.396987713218631  1.4902459101223133 
H  3.927844895194008  -2.6248151277143994  0.6759265976421566 
C  4.201417908293058  -2.6557756424565824  2.6667529594906387 
H  5.040406002082779  -3.057349808483692  2.648863642600889 
C  3.6356532370734485  -2.329990686156179  3.854350281417646 
H  4.096684873617359  -2.500401683141506  4.643741402606731 
C  2.3961481025098657  -1.7559477727774304  3.908934573940124 
H  2.007557608866224  -1.555624963049519  4.730087629193856 
C  1.7207456488161057  -1.4725811983884878  2.726696421086126 
H  0.8852423270472193  -1.0665606265587257  2.754891359713632 
C  4.214947443593969  1.13401710976246  0.4712518624964608 
C  5.244236558710986  0.218093411389013  0.4870947239662604 
H  5.224397043913031  -0.4956938792455441  -0.10946470926832341 
C  6.304026560078386  0.32994494817158276  1.3732048845677456 
H  6.992610284213752  -0.2959576005358758  1.356326662582621 
C  6.337258212505814  1.3505988320217128  2.260263826610849 
H  7.048431305444444  1.4187344969484563  2.85532594357431 
C  5.338841936599865  2.278973611626388  2.2921126664655036 
H  5.3588353583210315  2.9645811473075967  2.919123663263028 
C  4.300564584000281  2.1995372721644455  1.3840710005427297 
H  3.6470302817827873  2.861762989762477  1.3774934039539943 
C  3.261330831784688  1.9393861979683884  -2.1544763068774992 
C  2.3766211383002163  1.9206702126371837  -3.219569692523917 
H  1.5417805436469783  1.5238821467775074  -3.1239490759688135 
C  2.732116083960144  2.4881549411358646  -4.414764562213002 
H  2.1338887249555607  2.4774367898362413  -5.12689789816292 
C  3.9652881800320934  3.0740275020648467  -4.5737448560235165 
H  4.212459488251307  3.4276472827060167  -5.397566350725194 
C  4.815045881541778  3.134732941542907  -3.524897208200987 
H  5.6350371630781435  3.564112258708731  -3.625442074775845 
C  4.488407206627286  2.569800233982272  -2.3148274325358082 
H  5.0898544822457845  2.6089819835525203  -1.6055004662137018 
C  1.1841550928674047  2.724723092076407  0.6660577777253579 
C  1.4799539923725047  3.952551264888811  0.08689873298916878 
H  1.8685066277152134  3.9825362256037504  -0.7563733059752311 
C  1.2021199117449843  5.125163299661193  0.7563527116530118 
H  1.417233402116413  5.932293440148388  0.3512156205624162 
C  0.6198558430156692  5.14023278645748  1.9966847175427673 
C  0.3417318010209751  3.9262597117517886  2.5699170710907393 
H  -0.044023651800347174  3.902767060322424  3.415797881812594 
C  0.6173811916881221  2.7382291940975194  1.926108316453964 
H  0.4180935900382339  1.9327140407082852  2.349156941896662 
C  0.28219129384981834  6.452899474164656  2.684821287723798 
H  -0.11610544207974738  6.271034909638026  3.539426395546946 
H  -0.33544115719097745  6.94854038178995  2.1418096708041108 
H  1.0836473241506726  6.96498428352422  2.807644695580716 
Br  -1.5839191898578664  1.5839191898578664  0.0 
C  -1.2937473829822488  -1.2398794889499034  -0.4598005675376139 
C  -1.601562203225019  -1.4938654694550033  -1.7919791134336869 
H  -1.1309417375171225  -1.0428217585005106  -2.480879663633267 
C  -2.60218398542082  -2.411889969420291  -2.121542410022959 
H  -2.8231586547736818  -2.5626138747145775  -3.03270050271447 
C  -3.2683208079706407  -3.09759503004543  -1.143064365570095 
H  -3.9596020908062854  -3.707191723557817  -1.3683280760515548 
C  -2.9347449854640226  -2.896087320001541  0.14198826503765638 
H  -3.3668350933519986  -3.405606940434718  0.8171022443470677 
C  -1.9675509241539992  -1.9516175659140573  0.5112421903797603 
H  -1.7755298364628027  -1.8022912010877177  1.4301324877763764 

-Ni 0
lanl2dz
F 1 1.0
3.130 1.0
****
-C 0
6-31g(d)
****
-N 0
6-31+g(d)
****
-H 0
6-31g(d,p)
****
-Br 0
6-31+g(d)
****
-P 0
6-31+g(d)
****

-Ni 0
lanl2dz


