%chk=OJINEFIC_PN_Pd_gaussain.chk
%nprocshared=32
%mem=64GB
#p opt rwb97xd/gen pseudo=read

This Gaussian input file was generated using the DART python program. This file was generated on the 2023-10-04 at 16:41:16

0 1
Pd  0.0  0.0  0.0 
P  1.3856246786197193  -1.6037905879509315  4.508430563113847e-18 
C  4.889749117320414  0.30639598691486675  0.5467833001319594 
C  3.4399409407072508  0.38712956957382727  0.22354346710283032 
C  3.04685405991395  -0.9360187117184435  -0.4095336055048454 
C  4.3436498987773575  -1.7762150129834469  -0.19766169220072144 
C  5.29276887937917  -1.2592658450379839  -1.302176123261686 
C  5.598884313566421  0.1880089783948945  -0.8472432310570466 
C  5.004260050627335  -1.136540876155687  1.0917991121459747 
C  4.199193630950775  -1.2912451261145292  2.3842973964596768 
C  6.401498538259354  -1.6433169391318485  1.3312952721867082 
C  5.450569972375122  1.4331112535936137  1.3971013326167392 
N  2.7878709043632317  1.463237954899256  0.45226526478423024 
N  1.3856246786197193  1.6037905879509324  2.5636903921355206e-17 
C  0.8543316473279575  2.634779317042155  0.9520473756004505 
C  1.460094772813952  2.1936979967534493  -1.365556957475829 
C  1.466456003747968  -2.6736311350214654  1.4410404785160893 
C  2.2227724323762224  -3.8458354577827825  1.4237831471264009 
C  2.3547918487577437  -4.608698389634226  2.584554731420782 
C  1.7285633532413673  -4.2002653155650576  3.761774738645331 
C  0.9704003816693242  -3.0300189167519105  3.778815706983861 
C  0.8393469040492033  -2.26604144412848  2.6195423753973643 
C  0.9929711525892558  -2.6620513688477976  -1.419023600265851 
C  1.223627897600489  -2.186816150655261  -2.7097800309568982 
C  0.8340339936993234  -2.947450655661672  -3.813450973691523 
C  0.21502147632672375  -4.182328441377041  -3.6249715379889973 
C  -0.015415670258728253  -4.658573616862113  -2.333605383755112 
C  0.37519380528074553  -3.8980928725784887  -1.2305549020487725 
H  2.8298548876215195  -0.9035368774993283  -1.3436980555189648 
H  4.2138807342323235  -2.7276404805374943  -0.17680303397826447 
H  6.092893191059787  -1.7875882122882907  -1.3554610378313408 
H  4.852149928437155  -1.2577272838202422  -2.1543113196361547 
H  6.546270508836527  0.31827518744337413  -0.7662248887398636 
H  5.238707870212135  0.8300999831286769  -1.4630326847606911 
H  3.256814151409105  -1.119176333546928  2.3322855981527466 
H  4.587456393169462  -0.7402596254894102  3.0677709772038204 
H  4.345472762195181  -2.2152149829854775  2.5966350034827 
H  6.953179725481076  -1.596944787705882  0.5467521240821652 
H  6.317087293272346  -2.558357089027589  1.609429692563836 
H  6.802166021957194  -1.1301850151869395  2.0345900440539904 
H  4.943910197222661  1.5431058759123457  2.2042073822182893 
H  5.3387312239470806  2.2064581227660036  0.8404013646884891 
H  6.379322724537309  1.3238491832731467  1.6129652836147224 
H  -0.09365830172565914  2.7612028860063864  0.8654171400952071 
H  1.302773257789557  3.472529426123794  0.8139106073585561 
H  1.0552630088133161  2.3072197129724064  1.8322734793677242 
H  0.5543953867209088  2.315986574497615  -1.6600569842738144 
H  1.9158305689539676  1.6040919988730515  -1.9721855599832372 
H  1.908116095544046  3.04296241458508  -1.347096107433683 
H  2.655210271389163  -4.125944490330456  0.6137425399497985 
H  2.876268601560862  -5.415006762881497  2.572266382579049 
H  1.818568205792964  -4.725350115492666  4.561025249688145 
H  0.5398090856001817  -2.747951960256066  4.589072677211598 
H  0.3189703538542441  -1.4598996449975619  2.631158558125139 
H  1.6496176942537228  -1.3358597725263275  -2.838620535725486 
H  0.9922368321260886  -2.618724808309256  -4.701627318341701 
H  -0.05258048731377096  -4.705503652844032  -4.383577066021993 
H  -0.4402865701818113  -5.508459967511841  -2.203198637848951 
H  0.21784023802828667  -4.22479119836766  -0.34149092302392137 
Br  -1.654629867976521  1.654629867976521  0.0 
C  -1.352040782177733  -1.3199206589279684  -0.4819701001757076 
C  -1.6380700204479186  -1.599217458033982  -1.8139382277462257 
H  -1.1579680913617836  -1.159339363685303  -2.503515938957912 
C  -2.63068216563725  -2.52632649780156  -2.142289956238523 
H  -2.8368222554424674  -2.694399528648736  -3.0538898079700485 
C  -3.3101544432602585  -3.1961573187854975  -1.1619874135498987 
H  -3.9960123560788676  -3.811990145619169  -1.3868663427944008 
C  -2.9974710358883443  -2.9701089012107795  0.12423560353005347 
H  -3.438659168087169  -3.468581175155742  0.8017084178296768 
C  -2.0389854250767776  -2.015940632791841  0.4912562833419403 
H  -1.8619130127668426  -1.8492165108145995  1.4101568590026907 

-Pd 0
lanl2dz
F 1 1.0
1.472 1.0
****
-H 0
6-31g(d,p)
****
-P 0
6-31+g(d)
****
-N 0
6-31+g(d)
****
-C 0
6-31g(d)
****
-Br 0
6-31+g(d)
****

-Pd 0
lanl2dz


