%chk=WOPUBAFU_PN_Ni_gaussain.chk
%nprocshared=32
%mem=64GB
#p opt rwb97xd/gen pseudo=read

This Gaussian input file was generated using the DART python program. This file was generated on the 2023-08-11 at 15:55:49

0 0
Ni  0.0  0.0  0.0 
C  2.8421262813342905  -0.729458155436019  -0.48178673482717616 
H  3.2575191191567594  -0.32044875530931577  0.3183080601151574 
H  3.4726819656799517  -1.4009563643084872  -0.8443888506792852 
P  1.286444063105743  -1.5572930592858873  3.6970599050122504e-15 
N  2.604154620544171  0.30955105696101654  -1.4928056244701522 
C  2.187166048120189  1.5289436489184876  -1.0185588773573637 
N  1.2864440631057386  1.5572930592858873  -1.3009364206640417e-15 
C  1.0517635653430297  2.7437506396254943  0.6080261211695929 
H  0.49134688973414054  2.7532851809319387  1.3745164421923495 
C  1.5828793198617  3.9339514043100414  0.1731322892446091 
H  1.406870125858056  4.743463732437981  0.6382796682924522 
C  2.3797787859510287  3.923559403971058  -0.9571216013815409 
H  2.7045295458229694  4.7401391366150385  -1.318244481019041 
C  2.6996158882325316  2.7301998471948945  -1.5550020127140867 
H  3.2600205222658234  2.7122335563717477  -2.3221290872904317 
C  3.492310799166048  0.26882956936312097  -2.6550942559311856 
H  3.088839148594996  0.7738796884207778  -3.3923931060763266 
H  3.6267073546522672  -0.6623344985387515  -2.9314274868714563 
H  4.356149776835952  0.6674864928613131  -2.4204466520541583 
C  1.7639865416636393  -2.513550782339554  1.4959244828108944 
H  2.712641700675416  -2.8014783835873325  1.3654189054585608 
C  1.7406812466053831  -1.6028659619433658  2.7409812771468767 
H  2.3071840336144547  -0.8070988758380261  2.5776365588901236 
H  0.8157785284236605  -1.2913064727984724  2.904397269705247 
C  2.249321507587925  -2.345369711064441  3.9652395372574074 
H  2.1760600618569645  -1.7588567297384758  4.759662487143379 
H  3.20542605187524  -2.5713321963537306  3.8389364666888324 
C  1.455240570761885  -3.62525217642005  4.206055381098195 
H  1.8389547098245946  -4.111402432780381  4.977714468859215 
H  0.5162678782488967  -3.3967119617971173  4.423082621358554 
C  1.4893429276467791  -4.518542611836175  2.9733658349232406 
H  0.9467425993287344  -5.330064227799401  3.1392239686809496 
H  2.4215299335999863  -4.803859230535899  2.798169736148868 
C  0.944713474979346  -3.7844144570980736  1.7523965717114238 
H  -0.003927571495133231  -3.543720386855518  1.9035555591844617 
H  0.9914877255002054  -4.375565438289851  0.9598195490037118 
C  0.8811041986117065  -2.771124867453588  -1.3108577137631496 
H  0.14829276856017914  -3.3504195060707285  -0.9550191131936043 
C  2.0667980256887244  -3.692977367495104  -1.6314813663508467 
H  2.807082033463357  -3.1611654197941546  -2.0171082976142825 
H  2.393211010676194  -4.117243337256104  -0.7984371597601319 
C  1.6392246313890848  -4.77126440215897  -2.6235059191532852 
H  2.413313406382127  -5.350205969787499  -2.8368081687936173 
H  0.93729058593749  -5.3369235404613935  -2.21490426094457 
C  1.1050351575592903  -4.145048572591739  -3.9050418144168355 
H  0.7874649300203993  -4.859593865377071  -4.51221396886666 
H  1.8359425231292168  -3.6587726237685585  -4.362170433682513 
C  -0.04079455601279047  -3.1791086995342006  -3.6171682151880336 
H  -0.8171074304352868  -3.688824979502721  -3.2738202649379473 
H  -0.3150701393208106  -2.7386181727771106  -4.46048204184946 
C  0.34903731965754714  -2.112259518454662  -2.5979030075304155 
H  -0.4400863436152873  -1.5542560618679635  -2.3827225565127277 
H  1.0466064848963665  -1.524159915403731  -2.983575571500623 
Br  -1.5839191898578664  1.5839191898578664  0.0 
C  -1.2937473829822488  -1.2398794889499034  -0.4598005675376139 
C  -1.601562203225019  -1.4938654694550033  -1.7919791134336869 
H  -1.1309417375171225  -1.0428217585005106  -2.480879663633267 
C  -2.60218398542082  -2.411889969420291  -2.121542410022959 
H  -2.8231586547736818  -2.5626138747145775  -3.03270050271447 
C  -3.2683208079706407  -3.09759503004543  -1.143064365570095 
H  -3.9596020908062854  -3.707191723557817  -1.3683280760515548 
C  -2.9347449854640226  -2.896087320001541  0.14198826503765638 
H  -3.3668350933519986  -3.405606940434718  0.8171022443470677 
C  -1.9675509241539992  -1.9516175659140573  0.5112421903797603 
H  -1.7755298364628027  -1.8022912010877177  1.4301324877763764 

-Ni 0
lanl2dz
F 1 1.0
3.130 1.0
****
-P 0
6-31+g(d)
****
-H 0
6-31g(d,p)
****
-N 0
6-31+g(d)
****
-Br 0
6-31+g(d)
****
-C 0
6-31g(d)
****

-Ni 0
lanl2dz
