%chk=UJOMIJEM_PN_Ni_gaussain.chk
%nprocshared=32
%mem=64GB
#p opt rwb97xd/gen pseudo=read

This Gaussian input file was generated using the DART python program. This file was generated on the 2023-08-11 at 15:55:49

0 0
Ni  0.0  0.0  0.0 
C  2.191154644164575  -1.2568671098551998  -1.0498267127748868 
C  1.8418777311715382  -2.310911081558607  1.011018973773689 
C  3.875321201690044  -2.610853386786566  0.024206921891354524 
C  5.161403389346568  -3.1694953927064926  0.06197259167816177 
H  5.417089523698674  -3.711863591654077  0.7737541785926044 
C  6.040679882250881  -2.906396844843351  -0.9687766373480957 
H  6.899251865772371  -3.263449019609644  -0.939197867822268 
C  5.6589796194677655  -2.100933247466744  -2.071476298494524 
H  6.267379525816955  -1.9324705596763938  -2.7536640855273924 
C  4.4167201315139994  -1.5764624340603848  -2.1344891580846688 
H  4.1743199945368525  -1.0621812240086912  -2.8688398240346973 
C  3.47493036358516  -1.7980143345727435  -1.1023163632465172 
C  0.88238516085586  -2.6039955258509297  2.1371510468552213 
H  0.09457317527069065  -2.032651379201965  2.018420252794391 
C  0.42236366679779325  -4.071061312545891  2.0487706615104844 
H  -0.19471275466538773  -4.256290819524672  2.7606288354599124 
H  1.1826107330586264  -4.650812885320514  2.126342126026434 
H  -0.009969767047493638  -4.220591497426483  1.204397340171445 
C  1.4974347024130452  -2.285462181440131  3.5177746885218357 
H  0.8589384134361617  -2.4852321260060495  4.206711803366808 
H  1.7293243345777836  -1.3541792175041276  3.557186610285103 
H  2.2857955836784556  -2.8172669066687734  3.647451845781395 
C  1.62846575696085  -0.3438878285862375  -2.1059797784765677 
C  1.2876250437733725  0.9473997654124471  -1.7653770071740669 
C  0.6714262590546  1.7904800597094253  -2.7306810085535376 
H  0.4435467110713269  2.6637656677207553  -2.5086653143983315 
C  0.41131699634605723  1.3106960337580673  -4.001724560087171 
H  0.012133818029671728  1.8709864984410327  -4.626956041487911 
C  0.7424014081302117  -0.015028744099211047  -4.370579498577623 
C  0.469924197373462  -0.5232076723118118  -5.667654826590217 
H  0.0931634788757687  0.03521278651392724  -6.308492280366107 
C  0.7481651469755601  -1.8118844994610352  -5.987046669211705 
H  0.5653092625880938  -2.125661420213868  -6.8433267983445285 
C  1.3150252675103824  -2.6782519209540827  -5.026371482313056 
H  1.4806353697572707  -3.5675169124808552  -5.242308901207192 
C  1.613455644714205  -2.217462584981749  -3.7998189853459503 
H  2.005579079051023  -2.7941172041417652  -3.18408615980768 
C  1.346699288054577  -0.8635860485562519  -3.414831166969581 
C  3.0972184592789267  1.2277895685866962  0.4476183924675691 
C  3.387743004244701  0.5358109630702215  1.6280849816940024 
H  2.706787222685576  0.32466358208950924  2.223631543321388 
C  4.687076951305439  0.16813857110632213  1.902983119561822 
H  4.8726775541374385  -0.328784440550531  2.6665703357423127 
C  5.711860391118087  0.5278767234896317  1.0549400350397988 
H  6.584739140792298  0.2772048163355966  1.2584407557534774 
C  5.467220826158416  1.256105708162668  -0.08910487628949997 
H  6.1638702320862535  1.525453501395137  -0.6423647713670114 
C  4.139220489721188  1.5777587398030615  -0.39804411571895365 
H  3.9527082385654895  2.0355034953384266  -1.1854131136790709 
C  1.0562405220086102  3.274328188043418  0.06391753418331517 
C  2.077376146975687  4.172011419088402  0.40304729124358213 
H  2.937065705641234  3.85895155304413  0.570666988754913 
C  1.7995944575442533  5.542595995327493  0.4900069508113119 
H  2.475750537549092  6.135560520884179  0.7246873226020486 
C  0.5472584163982588  6.014308276532481  0.23041855775954787 
H  0.3770050727274793  6.9271319274578245  0.27105144198209824 
C  -0.4645798534202028  5.139686788579117  -0.09000464449186736 
H  -1.3176213963141061  5.470485028958809  -0.25541211185318147 
C  -0.23430609188952212  3.7785784537731066  -0.1711284121072917 
H  -0.9311887749683587  3.2000174744252554  -0.38082707495684204 
N  1.3630048954424192  -1.490743993782971  1.3720769813910473e-15 
N  3.0242998865843553  -2.864094732433041  1.0566912278693934 
P  1.3630048954424188  1.4907439937829705  -7.154118357093001e-17 
Br  -1.5839191898578664  1.5839191898578664  0.0 
C  -1.2937473829822488  -1.2398794889499034  -0.4598005675376139 
C  -1.601562203225019  -1.4938654694550033  -1.7919791134336869 
H  -1.1309417375171225  -1.0428217585005106  -2.480879663633267 
C  -2.60218398542082  -2.411889969420291  -2.121542410022959 
H  -2.8231586547736818  -2.5626138747145775  -3.03270050271447 
C  -3.2683208079706407  -3.09759503004543  -1.143064365570095 
H  -3.9596020908062854  -3.707191723557817  -1.3683280760515548 
C  -2.9347449854640226  -2.896087320001541  0.14198826503765638 
H  -3.3668350933519986  -3.405606940434718  0.8171022443470677 
C  -1.9675509241539992  -1.9516175659140573  0.5112421903797603 
H  -1.7755298364628027  -1.8022912010877177  1.4301324877763764 

-Ni 0
lanl2dz
F 1 1.0
3.130 1.0
****
-P 0
6-31+g(d)
****
-H 0
6-31g(d,p)
****
-N 0
6-31+g(d)
****
-Br 0
6-31+g(d)
****
-C 0
6-31g(d)
****

-Ni 0
lanl2dz
