%chk=VEXUWEZA_PN_Pd_gaussain.chk
%nprocshared=32
%mem=64GB
#p opt rwb97xd/gen pseudo=read

This Gaussian input file was generated using the DART python program. This file was generated on the 2023-10-04 at 16:41:16

0 1
Pd  0.0  0.0  0.0 
P  1.6930402793495494  1.2750351416725731  2.9670584607921982e-15 
N  3.8085553241941277  -0.8306112575930586  0.4654103955607703 
N  1.693040279349549  -1.2750351416725736  1.3877787807814457e-15 
C  5.045629672821912  -0.14038283859784428  0.8058176157817643 
H  4.909947013345925  0.8270546066022071  0.7360651567403738 
H  5.754072346642252  -0.41675335458044704  0.18865439927755584 
H  5.304687998867553  -0.36787577233730195  1.7226371175404525 
C  3.653467298681218  -2.201520107765654  0.4745885686338865 
H  4.33131467253435  -2.844695455014704  0.6482075493113915 
C  2.35718912952267  -2.459697011476856  0.1874994107872001 
H  1.9682931553426681  -3.3242202383065282  0.1256982656635054 
C  2.595224780033792  -0.30313204308470276  0.1754567287978443 
C  1.9446667928675743  2.2909084636430395  1.5526474362853622 
C  3.2387002347625193  3.102451366407769  1.596018719754721 
H  3.2822785979649796  3.602232065913887  2.4375158609630607 
H  3.255830652528349  3.728215499428732  0.8426390222503932 
H  4.007051243263978  2.4958253882520824  1.5357571203612819 
C  0.7440793047357228  3.248533940065831  1.6803425428764265 
H  0.8476036988394833  3.7976816240124163  2.4857232857810443 
H  -0.08490707866545466  2.728175466549829  1.7445559774175474 
H  0.7044870193757968  3.829956597191599  0.8933566187832438 
C  1.8965156647568966  1.295679062878913  2.718927813688837 
H  2.0216788188056007  1.7760486385727625  3.5640054820817033 
H  2.6096051730114502  0.6325092196612594  2.611491031049181 
H  1.027332564645083  0.8423017432219093  2.725711212591777 
C  2.2664652338757714  2.084440671975218  -1.5795813651224668 
C  3.7783742708665287  2.2830938358933026  -1.68755189041111 
H  3.9924962790090284  2.7066829412818136  -2.545215726319566 
H  4.227894570252514  1.413937642640251  -1.63278847041375 
H  4.085717657489979  2.8562721006439653  -0.9552607464551912 
C  1.8226644277733357  1.1412832595273539  -2.7139448694047283 
H  2.102044341170536  1.5137887572008975  -3.57689082842719 
H  0.8473807977053407  1.0489634903282177  -2.699276497427407 
H  2.236220571304448  0.2612946197411956  -2.5874271631538406 
C  1.5544715396013236  3.425333388671055  -1.718906889078027 
H  1.8452019633815873  3.864568451059489  -2.5451245060877423 
H  1.7745585625281375  3.9938362764025563  -0.9520013284121984 
H  0.5865557773876413  3.2788965659533127  -1.750468799835575 
Br  -1.654629867976521  1.654629867976521  0.0 
C  -1.352040782177733  -1.3199206589279684  -0.4819701001757076 
C  -1.6380700204479186  -1.599217458033982  -1.8139382277462257 
H  -1.1579680913617836  -1.159339363685303  -2.503515938957912 
C  -2.63068216563725  -2.52632649780156  -2.142289956238523 
H  -2.8368222554424674  -2.694399528648736  -3.0538898079700485 
C  -3.3101544432602585  -3.1961573187854975  -1.1619874135498987 
H  -3.9960123560788676  -3.811990145619169  -1.3868663427944008 
C  -2.9974710358883443  -2.9701089012107795  0.12423560353005347 
H  -3.438659168087169  -3.468581175155742  0.8017084178296768 
C  -2.0389854250767776  -2.015940632791841  0.4912562833419403 
H  -1.8619130127668426  -1.8492165108145995  1.4101568590026907 

-Pd 0
lanl2dz
F 1 1.0
1.472 1.0
****
-H 0
6-31g(d,p)
****
-P 0
6-31+g(d)
****
-N 0
6-31+g(d)
****
-C 0
6-31g(d)
****
-Br 0
6-31+g(d)
****

-Pd 0
lanl2dz


