%chk=IBOJAHAQ_PN_Ni_gaussain.chk
%nprocshared=32
%mem=64GB
#p opt rwb97xd/gen pseudo=read

This Gaussian input file was generated using the DART python program. This file was generated on the 2023-10-04 at 09:55:46

0 1
Ni  0.0  0.0  0.0 
C  2.653976650971198  -1.2830775321402232  -0.15514003135923973 
C  0.9686778790476847  -2.4042251371981704  0.9602377508410351 
H  0.055781215486629954  -2.565531507484809  1.0406884597506587 
C  3.0999771384614867  -2.8006563946129877  1.6647822667992123 
C  3.9903731664271573  -3.4775966282503137  2.511079858350801 
H  3.665382668599271  -4.107518882805282  3.1151237139920736 
C  5.316056472845174  -3.219644694163414  2.4572847769261785 
H  5.897213931996713  -3.6847204450382915  3.014011930584737 
C  5.82683993633985  -2.2581363382982182  1.5686548511292853 
H  6.733422495624054  -2.060960141298536  1.577847812485656 
C  5.0084969194420745  -1.6107307068489802  0.6975151407139595 
H  5.360523672565153  -0.9965414883450341  0.09466814606344087 
C  3.6049419681426604  -1.878017003667085  0.7112218622835516 
C  3.1199504368590265  -0.3040661787630094  -1.1879294100923372 
C  2.749585217664622  1.0345502062718648  -1.1006941641923251 
C  3.405359926499097  1.9871496925298437  -1.9325956066926155 
H  3.191328432815422  2.8884582113501627  -1.8546671548059293 
C  4.342460015671491  1.5968270386653398  -2.8393154690279037 
H  4.81438619196147  2.2410129912204733  -3.3151900876649525 
C  4.606798685463526  0.245623420989096  -3.068801593295195 
C  5.4504805362849345  -0.21194634279933694  -4.094784982956643 
H  5.881418716856255  0.41758555400314357  -4.626665162540502 
C  5.6633103561711975  -1.5227133305819713  -4.345361800532434 
H  6.229515195101317  -1.7812362670736115  -5.037095645070827 
C  5.021424895554728  -2.4939712191780923  -3.5483237027673344 
H  5.137128548465682  -3.3970384041574158  -3.733793927106935 
C  4.223275227289213  -2.101589603144506  -2.4953089286798416 
H  3.832316148944085  -2.748149556903851  -1.9547796646669744 
C  3.9942129323075877  -0.7431933302595022  -2.224279777425055 
C  2.0444325501818286  1.3467991013589862  1.6530681263946787 
C  1.3264098484976523  0.6528213562529247  2.631801828258303 
H  0.45834990881292315  0.3707524724329779  2.4550145665703527 
C  1.9064277514436558  0.38301275268609764  3.86066585234863 
H  1.4290864094502904  -0.07759476915212515  4.51353000671005 
C  3.1906068759207216  0.8005457857065178  4.1105926268128945 
H  3.585299073078125  0.5910660482154781  4.925498234281513 
C  3.9097681677986156  1.5211532392396077  3.1849168389815787 
H  4.7692887312182535  1.8251541384400862  3.3723903420270482 
C  3.3028072942406186  1.783017199777354  1.945494927709545 
H  3.7730133143016227  2.266823848717439  1.3065547699954163 
C  1.0796619848182607  3.243872983301807  -0.3921526105084487 
C  1.3951375843950913  4.275836842705501  0.47647437442599194 
H  1.7484946091523363  4.0916703847808495  1.317049641032269 
C  1.1768486888153014  5.580816810633288  0.08098248908097481 
H  1.3680666044493253  6.278236572680813  0.6667095537161666 
C  0.6763388122375119  5.86381563422737  -1.181734331624479 
H  0.5574954131483372  6.748172373622642  -1.446546253522087 
C  0.3528490608821193  4.841077153425466  -2.04428219154591 
H  0.008519748273549066  5.023789981820397  -2.8881540282713885 
C  0.5480061809349344  3.550011504205643  -1.6360477516743042 
H  0.31851135225465965  2.855537049781405  -2.209790948375723 
N  1.3565282580912201  -1.496639931646888  3.815705521250559e-16 
N  1.7429272161147042  -3.0505770181983856  1.7592610483604385 
P  1.3565282580912201  1.496639931646888  -4.053301351017788e-16 
Br  -1.5839191898578664  1.5839191898578664  0.0 
C  -1.2937473829822488  -1.2398794889499034  -0.4598005675376139 
C  -1.601562203225019  -1.4938654694550033  -1.7919791134336869 
H  -1.1309417375171225  -1.0428217585005106  -2.480879663633267 
C  -2.60218398542082  -2.411889969420291  -2.121542410022959 
H  -2.8231586547736818  -2.5626138747145775  -3.03270050271447 
C  -3.2683208079706407  -3.09759503004543  -1.143064365570095 
H  -3.9596020908062854  -3.707191723557817  -1.3683280760515548 
C  -2.9347449854640226  -2.896087320001541  0.14198826503765638 
H  -3.3668350933519986  -3.405606940434718  0.8171022443470677 
C  -1.9675509241539992  -1.9516175659140573  0.5112421903797603 
H  -1.7755298364628027  -1.8022912010877177  1.4301324877763764 

-Ni 0
lanl2dz
F 1 1.0
3.130 1.0
****
-P 0
6-31+g(d)
****
-N 0
6-31+g(d)
****
-C 0
6-31g(d)
****
-H 0
6-31g(d,p)
****
-Br 0
6-31+g(d)
****

-Ni 0
lanl2dz


