%chk=APUBIREP_PN_Ni_gaussain.chk
%nprocshared=32
%mem=64GB
#p opt rwb97xd/gen pseudo=read

This Gaussian input file was generated using the DART python program. This file was generated on the 2023-08-11 at 15:55:49

0 0
Ni  0.0  0.0  0.0 
C  2.1002984326040264  0.454963409739271  -1.4574064047854909 
H  1.477782273813519  0.5106997144112841  -2.198171304322612 
H  2.954801690574434  0.814680544376984  -1.7423929398463425 
C  2.2569169179789124  -0.9812608555998868  -1.004706460352229 
C  3.192950740994215  -1.8446576274904098  -1.625174095656759 
H  3.681071551358375  -1.5392730983074012  -2.3553689078987294 
C  3.3908300296084515  -3.122277272203495  -1.1680536951267282 
C  2.6794227879804415  -3.5497915564970537  -0.004079892464394451 
C  2.6341737044227767  1.3558370041932555  2.512560130458381 
H  1.8287982267477405  1.0012871445495826  2.814803851627829 
C  1.7126275039998191  -2.647716636464134  0.5771699742198532 
C  1.0458038293774732  -3.027537728871856  1.74893383469916 
H  0.4121062885097355  -2.4539742303780057  2.1168955173424444 
C  1.304954871511728  -4.230912769624108  2.371422010213558 
H  0.8850258979714365  -4.448519165228918  3.1726824446375157 
C  2.2146090134333756  -5.126042625974582  1.7738299902243515 
H  2.3518011590574064  -5.95934801569899  2.165212019238604 
C  2.899131593714699  -4.810352391551486  0.6439688956755928 
H  3.5136589016954387  -5.412346793350032  0.28991569635498016 
C  1.0675210594955207  3.0610918191760437  -0.6332049602819642 
C  1.4488382127082904  4.207163423881093  0.04981412843702502 
H  1.9118647973092622  4.1333909144371175  0.8523177600818438 
C  1.1424018099633966  5.471014487472494  -0.4617499048292562 
H  1.4021204919977557  6.233104342952263  0.003904793823256404 
C  0.4572151270121516  5.595889290393136  -1.649701491848632 
H  0.2634993280402522  6.438305430463573  -1.9955080796654456 
C  0.060275795586463454  4.458009647652647  -2.32160620667365 
H  -0.4072523818222826  4.53604371342797  -3.1210611009031144 
C  0.3489130090359225  3.206772190351604  -1.8200654361883803 
H  0.06158112397929716  2.45078540815441  -2.279596939975592 
C  2.8433162223124935  1.6263593041278992  1.162659825825176 
C  4.06269920732956  2.1403810648104153  0.7385344134815153 
H  4.2030508435893745  2.3186308932222737  -0.16317517772307494 
C  5.062083232597711  2.3845790274344996  1.648050776769811 
H  5.883508418998477  2.703229178414043  1.351120036651545 
C  4.8673113505396275  2.1667927643755323  2.9941046232345014 
H  5.534118094123003  2.3761213704360142  3.6079675243749105 
C  3.6895172970489174  1.640875703721655  3.4094293189547815 
H  3.57213251190547  1.4615861938141628  4.314149360654961 
C  4.36710948778318  -4.048887894633731  -1.8693158101347442 
H  4.367636796220802  -4.902417571338556  -1.4308331389492461 
H  5.249082832534691  -3.670655433324274  -1.835227625089984 
H  4.100858689442744  -4.159248746302258  -2.7849288369108494 
N  1.4551439533599415  -1.4009482770609338  1.2328916564124945e-16 
P  1.4551439533599415  1.4009482770609338  -1.1605553109610938e-16 
Br  -1.5839191898578664  1.5839191898578664  0.0 
C  -1.2937473829822488  -1.2398794889499034  -0.4598005675376139 
C  -1.601562203225019  -1.4938654694550033  -1.7919791134336869 
H  -1.1309417375171225  -1.0428217585005106  -2.480879663633267 
C  -2.60218398542082  -2.411889969420291  -2.121542410022959 
H  -2.8231586547736818  -2.5626138747145775  -3.03270050271447 
C  -3.2683208079706407  -3.09759503004543  -1.143064365570095 
H  -3.9596020908062854  -3.707191723557817  -1.3683280760515548 
C  -2.9347449854640226  -2.896087320001541  0.14198826503765638 
H  -3.3668350933519986  -3.405606940434718  0.8171022443470677 
C  -1.9675509241539992  -1.9516175659140573  0.5112421903797603 
H  -1.7755298364628027  -1.8022912010877177  1.4301324877763764 

-Ni 0
lanl2dz
F 1 1.0
3.130 1.0
****
-P 0
6-31+g(d)
****
-H 0
6-31g(d,p)
****
-N 0
6-31+g(d)
****
-Br 0
6-31+g(d)
****
-C 0
6-31g(d)
****

-Ni 0
lanl2dz
