%chk=YODUMEPU_PN_Ni_gaussain.chk
%nprocshared=32
%mem=64GB
#p opt rwb97xd/gen pseudo=read

This Gaussian input file was generated using the DART python program. This file was generated on the 2023-08-11 at 15:55:49

0 0
Ni  0.0  0.0  0.0 
P  1.3331800234776952  1.5174752139656182  -5.054777375299807e-15 
N  1.3331800234776998  -1.5174752139656187  5.329070518200751e-15 
C  2.5055806044337032  -1.0245508003633383  -0.07632182026717566 
C  3.860388850370203  -1.6115186808286213  0.22170823533895223 
C  4.727169921545084  -1.5322451982090106  -1.0567073385674082 
C  5.081343817597714  -0.009811020215021893  -1.20334933470313 
C  4.258084278757338  0.6154496438589967  -0.08178299530538435 
C  2.7685019631418815  0.41933510290232134  -0.44716326547760143 
C  4.452329514168101  -0.43659030730963244  1.0498382176741812 
C  1.0561881551145498  -2.9419400388974966  0.23313980224854752 
C  0.5826283022630054  -3.3028325859123706  1.5104895293305143 
C  0.1961218344873803  -4.658603013703102  1.6825736003416125 
C  0.2743765679072516  -5.558753538356714  0.6725505908694305 
C  0.7717578395410183  -5.183536141222417  -0.5798458062492232 
C  1.193638027618688  -3.8433521327565785  -0.7928642569993711 
C  0.575113587462714  -2.3614691541717505  2.670417729023505 
C  1.9282629628199952  -2.408509902740852  3.3788099056773344 
C  -0.5497868027594366  -2.608898104934501  3.647713583103783 
C  1.761191477975089  -3.5398679435180016  -2.1806567479254553 
C  0.767286608087736  -3.833257859150647  -3.300377015232999 
C  3.0670647900754098  -4.331983596503708  -2.390101621434406 
C  1.2272605260092728  2.8691556737997814  -1.323792749851196 
C  1.6744710284715296  2.2985002904166114  -2.669489130876029 
C  2.1252759910817627  4.088535409277902  -1.0296838836197217 
C  -0.23474437546073634  3.2505781475727957  -1.4300638869420594 
C  1.5187632103293525  2.235039507588854  1.7168900620817358 
C  2.881803439122042  2.9082420782788443  2.0152643463442983 
C  0.39466001262167805  3.233885519075894  1.9823802243096809 
C  1.3603893335529995  1.096691178006759  2.7315037302788983 
H  3.862067570281544  -2.4635138522168316  0.655664891965668 
H  4.213014850692023  -1.798444455555929  -1.8175273294351904 
H  5.529055586106052  -2.0306267421313065  -0.9477216163408488 
H  4.779255899496078  0.31995598381548596  -2.0368409020208635 
H  6.011569384342078  0.12012306911005566  -1.0201016132811278 
H  4.508116923453894  1.497642886740084  0.16970294625198534 
H  2.7466790646315777  0.44518860919944925  -1.3970811815697093 
H  5.386921171927369  -0.6090371997475931  1.1528387639604183 
H  3.8945384998694665  -0.26010283487169894  1.7580834410539012 
H  -0.11535958256098633  -4.93267483126718  2.5383875144904033 
H  -0.014634092429341106  -6.452812164496974  0.8149067331183477 
H  0.8202387743274759  -5.823371013689731  -1.285697330960319 
H  0.46780798356426634  -1.514195638158244  2.3407501291079247 
H  1.9229375249037186  -1.8326926755740685  4.115947756156427 
H  2.605082825272775  -2.140209899384605  2.7576652832354673 
H  2.1233319418670877  -3.3038035869451576  3.6658035858122906 
H  -0.5271114547014659  -1.9347371396779178  4.325022634803789 
H  -0.45594719333144407  -3.4623663613388143  4.06906625369291 
H  -1.3826553345091108  -2.571205311356329  3.1983169074001974 
H  1.9748990834215188  -2.6152221258553805  -2.218697006249704 
H  1.1504734123941034  -3.5745938747984853  -4.128945634120132 
H  -0.030345683567428505  -3.3730358841406316  -3.145010895931364 
H  0.6044878016927415  -4.778092296513975  -3.319474256099017 
H  3.334679608362975  -4.29655756153111  -3.2954680528195546 
H  2.932426597210968  -5.24616137827763  -2.136296518386613 
H  3.7578348468508485  -3.9654980322705633  -1.8397583831992241 
H  1.5202594405469751  2.9420242511461083  -3.3409404158675713 
H  1.1711016002513241  1.5124833070597923  -2.850952710163757 
H  2.596393725131771  2.0852790120575104  -2.624714497012206 
H  2.1496763111977337  4.649805851893047  -1.8081196771344115 
H  3.010276899452247  3.79623372229295  -0.8410986085604317 
H  1.7766980271326431  4.571184587504677  -0.30494716328183014 
H  -0.3493090503036069  3.8716339521925818  -2.1332565368085374 
H  -0.5175648482061188  3.632546432567228  -0.6096288380475723 
H  -0.7531600163999892  2.469047461545479  -1.6103049200816484 
H  2.796398859395432  3.4632349092978867  2.7904838928465785 
H  3.144435978274608  3.4463551113517514  1.2785150517973911 
H  3.5391899652643666  2.245099592827482  2.180388479153299 
H  0.3273308423210859  3.3911986552662103  2.9281665902553047 
H  -0.4334280323126254  2.8786010010566  1.6780997762149856 
H  0.5713751800199731  4.054212565306122  1.5483949401875352 
H  1.637772494496151  1.40722883006404  3.593092314627576 
H  1.8818010083359151  0.3601794381680057  2.4758582678122574 
H  0.4400845855687946  0.8477390227931321  2.7809843856124488 
Br  -1.5839191898578664  1.5839191898578664  0.0 
C  -1.2937473829822488  -1.2398794889499034  -0.4598005675376139 
C  -1.601562203225019  -1.4938654694550033  -1.7919791134336869 
H  -1.1309417375171225  -1.0428217585005106  -2.480879663633267 
C  -2.60218398542082  -2.411889969420291  -2.121542410022959 
H  -2.8231586547736818  -2.5626138747145775  -3.03270050271447 
C  -3.2683208079706407  -3.09759503004543  -1.143064365570095 
H  -3.9596020908062854  -3.707191723557817  -1.3683280760515548 
C  -2.9347449854640226  -2.896087320001541  0.14198826503765638 
H  -3.3668350933519986  -3.405606940434718  0.8171022443470677 
C  -1.9675509241539992  -1.9516175659140573  0.5112421903797603 
H  -1.7755298364628027  -1.8022912010877177  1.4301324877763764 

-Ni 0
lanl2dz
F 1 1.0
3.130 1.0
****
-P 0
6-31+g(d)
****
-H 0
6-31g(d,p)
****
-N 0
6-31+g(d)
****
-Br 0
6-31+g(d)
****
-C 0
6-31g(d)
****

-Ni 0
lanl2dz
