%chk=MEQUNUDO_PN_Ni_gaussain.chk
%nprocshared=32
%mem=64GB
#p opt rwb97xd/gen pseudo=read

This Gaussian input file was generated using the DART python program. This file was generated on the 2023-10-04 at 16:41:16

0 1
Ni  0.0  0.0  0.0 
P  1.3436185312431483  -1.508240445850727  2.2582523043771694e-15 
N  1.3436185312431501  1.5082404458507275  -1.8470618343556704e-16 
H  1.180333367048948  2.310127869256756  -0.42088466987681783 
H  0.9511866311108259  1.5719537949154365  0.8295381503641126 
C  1.6144293275537855  -3.031314725100864  -0.9248575741638817 
H  1.963119368093108  -2.8156836525522446  -1.8140366822069312 
H  0.7652065706885488  -3.5139221349488547  -1.0145197020777328 
H  2.2602341613561885  -3.5928733925733205  -0.4473785802552207 
C  0.7040175568311713  -2.0601112614689283  1.5974992007510436 
H  0.5299648588583137  -1.2818319968932474  2.167366470086548 
H  1.3646533011777797  -2.6401007236309684  2.030872073774496 
H  -0.12863443949638964  -2.5592995156171767  1.4613962987534777 
C  3.0558292340758944  -1.0154243852253624  0.3636835843074959 
H  3.4764410607500755  -1.7263231036291238  0.9095779911607946 
H  3.554963424772188  -0.9630161666170779  -0.489526125142823 
C  3.213567689357304  0.3035659624163892  1.091443903748819 
H  2.6678683156412184  0.28464099585782465  1.916707673198717 
H  4.161360258696705  0.4145328148572133  1.3578903583404078 
C  2.7967852805753872  1.4868817559358514  0.2537934297816855 
H  3.057538430657539  2.3211825953422878  0.7181992481000598 
H  3.2770343371194395  1.457164246288562  -0.6116218712784025 
Br  -1.5839191898578664  1.5839191898578664  0.0 
C  -1.2937473829822488  -1.2398794889499034  -0.4598005675376139 
C  -1.601562203225019  -1.4938654694550033  -1.7919791134336869 
H  -1.1309417375171225  -1.0428217585005106  -2.480879663633267 
C  -2.60218398542082  -2.411889969420291  -2.121542410022959 
H  -2.8231586547736818  -2.5626138747145775  -3.03270050271447 
C  -3.2683208079706407  -3.09759503004543  -1.143064365570095 
H  -3.9596020908062854  -3.707191723557817  -1.3683280760515548 
C  -2.9347449854640226  -2.896087320001541  0.14198826503765638 
H  -3.3668350933519986  -3.405606940434718  0.8171022443470677 
C  -1.9675509241539992  -1.9516175659140573  0.5112421903797603 
H  -1.7755298364628027  -1.8022912010877177  1.4301324877763764 

-Ni 0
lanl2dz
F 1 1.0
3.130 1.0
****
-H 0
6-31g(d,p)
****
-P 0
6-31+g(d)
****
-N 0
6-31+g(d)
****
-C 0
6-31g(d)
****
-Br 0
6-31+g(d)
****

-Ni 0
lanl2dz


