%chk=DEFETOKI_PN_Ni_gaussain.chk
%nprocshared=32
%mem=64GB
#p opt rwb97xd/gen pseudo=read

This Gaussian input file was generated using the DART python program. This file was generated on the 2023-10-04 at 16:41:16

0 1
Ni  0.0  0.0  0.0 
P  1.4437283851195843  -1.4127095773725042  -2.060556439276755e-15 
N  1.4437283851195832  1.4127095773725038  -3.95051631130436e-16 
N  1.4671885090545376  2.7877561977917757  0.0058364594143713675 
H  0.8405410213018214  3.2382794760325497  -0.31995582388344534 
C  2.651182378862228  3.1662356096709336  0.38982797109328143 
C  3.472456054785094  2.009794571705762  0.619790804929885 
H  4.383779161965646  1.996731263934943  0.8861156522665063 
C  2.6755320731991583  0.9435014112943485  0.37610916090832647 
C  2.951046361875477  4.62794344621058  0.5258047790055851 
H  2.1532028312897507  5.147651942393872  0.29603822422135606 
H  3.6833319241299725  4.868839370929199  -0.0777884190737123 
H  3.2120273402511295  4.823254396471976  1.45130111699623 
C  2.936022755034461  -0.5579599321935907  0.48634934726689943 
H  3.175254632495608  -0.7946976278649309  1.4181229583198491 
H  3.6857001525906075  -0.8173872312437214  -0.10471684708106489 
C  1.3456594660949937  -3.8722017445186383  -1.427661537924238 
H  0.7006510126179265  -4.131616804676729  -0.780311878538898 
C  1.7064760165460042  -4.7926051953243975  -2.4734833462001338 
H  1.292052770626663  -5.646822544260654  -2.481721308204829 
C  2.5868632924919273  -4.51398964241503  -3.43029785174943 
H  2.815837360362768  -5.142244157154526  -4.10566153966296 
C  3.137619239972067  -3.27922155707059  -3.3780273846567357 
H  3.767575458379252  -3.0199651919504533  -4.042089166447273 
C  2.780270932046359  -2.3379722151689593  -2.3225468954043635 
H  3.1813876134294974  -1.4767557560416407  -2.327830686125461 
C  1.912775907988649  -2.632414970185632  -1.3456179792322207 
C  -0.1347283502006169  -2.2549888816673636  2.0118723737550908 
H  -0.8051937461977483  -1.6812765822806606  1.6594777224011996 
C  -0.3522611893698595  -2.978491465900565  3.118493738310686 
H  -1.1841398175259015  -2.9194990506618974  3.5708989250200545 
C  0.6752859391200083  -3.841078454421193  3.6128191837078867 
H  0.5044417675632967  -4.345600375569084  4.398529785727706 
C  1.8932981570479646  -3.970352937248491  3.005197915920132 
H  2.557603009905228  -4.5533795431358115  3.352550603109678 
C  2.1127916085029526  -3.2462466691345697  1.908245137881561 
H  2.948748777622324  -3.3106938644097195  1.4611040634776193 
C  1.1036659999175968  -2.375557534084086  1.3985918476907857 
Br  -1.5839191898578664  1.5839191898578664  0.0 
C  -1.2937473829822488  -1.2398794889499034  -0.4598005675376139 
C  -1.601562203225019  -1.4938654694550033  -1.7919791134336869 
H  -1.1309417375171225  -1.0428217585005106  -2.480879663633267 
C  -2.60218398542082  -2.411889969420291  -2.121542410022959 
H  -2.8231586547736818  -2.5626138747145775  -3.03270050271447 
C  -3.2683208079706407  -3.09759503004543  -1.143064365570095 
H  -3.9596020908062854  -3.707191723557817  -1.3683280760515548 
C  -2.9347449854640226  -2.896087320001541  0.14198826503765638 
H  -3.3668350933519986  -3.405606940434718  0.8171022443470677 
C  -1.9675509241539992  -1.9516175659140573  0.5112421903797603 
H  -1.7755298364628027  -1.8022912010877177  1.4301324877763764 

-Ni 0
lanl2dz
F 1 1.0
3.130 1.0
****
-H 0
6-31g(d,p)
****
-P 0
6-31+g(d)
****
-N 0
6-31+g(d)
****
-C 0
6-31g(d)
****
-Br 0
6-31+g(d)
****

-Ni 0
lanl2dz


