%chk=OXOYAMAL_PN_Pd_gaussain.chk
%nprocshared=32
%mem=64GB
#p opt rwb97xd/gen pseudo=read

This Gaussian input file was generated using the DART python program. This file was generated on the 2023-10-04 at 16:41:16

0 1
Pd  0.0  0.0  0.0 
P  1.5828346202304266  1.409515720025853  2.194183464415185e-16 
C  2.9411784144476325  0.4312892374047794  0.7601158434149807 
H  3.8016590441079456  0.7736307119582873  0.47256509871081415 
H  2.8942265002074388  0.49001189570793136  1.7283037679167261 
C  2.7729181126876523  -1.0086132171508688  0.3137414129014649 
N  1.5828346202304269  -1.409515720025853  -2.220446049250313e-16 
C  4.035513488464611  -1.8253386879238267  0.29674104651365374 
H  4.798010437971529  -1.2264866864828514  0.3306832379986281 
H  4.082682767749025  -2.317247628809766  -0.5362054001251844 
P  4.150223477212796  -3.037882904861436  1.7290782800074151 
N  1.5568189100285554  2.825693111054445  0.8841926034310387 
N  1.9753586366979539  1.7449740858192677  -1.5646800220222163 
N  4.724496826195778  -2.072471749337014  2.990550761450023 
N  5.374739652920165  -4.032871304121203  1.1059952271408051 
C  1.3912359267990362  -2.812546106209645  -0.5185648041666047 
H  2.2785604326678612  -3.1859926151924216  -0.6979736562705232 
C  0.7372631518836135  -3.6778090668651173  0.5224626059370748 
H  1.2701221995035719  -3.6729079260677158  1.3222773058447783 
H  0.664657145762289  -4.57531130258108  0.19172963999633585 
H  -0.13722226823259787  -3.335380573062192  0.7184401215761036 
C  0.6469360978279268  -2.730436670780377  -1.8442697355925672 
H  1.130194106237232  -2.161823353019509  -2.4485474715495235 
H  -0.23020771526423212  -2.369061797294995  -1.6986879305221196 
H  0.5715937731520759  -3.6089446060996697  -2.2252905640172838 
C  1.3601691368262758  2.6259348635942192  2.370157895512622 
H  1.2387110831373829  1.6567155171260994  2.4543596153645035 
C  0.15579352403187152  3.166610415610071  2.9707135305360923 
H  -0.5998280790656925  2.9555211806531583  2.4175585632641985 
H  0.23762700513556378  4.11946873844975  3.0499478536896474 
H  0.031657331011010426  2.7827761367060546  3.840921179273219 
C  2.6452201144992085  2.8889339701194015  3.1476889590392423 
H  3.388353445833181  2.4974003553046087  2.6811221681822968 
H  2.575956665880612  2.4971654554767477  4.021292167378244 
H  2.781763821376437  3.835730413067566  3.2310384745322933 
C  1.536093663955773  4.138662830871441  0.2516966832711536 
H  1.6886050250053413  3.9659677508935225  -0.7017721961906992 
C  0.1933568294185093  4.883493778894317  0.31496738774191324 
H  -0.5125142755480276  4.2957329804657585  0.03633937945133081 
H  0.22231078905129764  5.6474792844836035  -0.26440754740032446 
H  0.02998774537070248  5.171069230690316  1.2169634586323193 
C  2.694575035766161  5.022445386327545  0.6861396321606774 
H  3.513689749469882  4.5254410996444925  0.6319596098946345 
H  2.554404425670854  5.312079970887206  1.5895180121833978 
H  2.7452886365961398  5.788133646959506  0.10874929779295778 
C  0.9531376542708664  1.5251273962099345  -2.6321255082900725 
H  0.3013270485954558  0.9094807434829368  -2.2373154484953544 
C  0.1712743360359894  2.7793531312500335  -2.9377456273298552 
H  -0.12655037246966305  3.178347670303266  -2.1167599387766174 
H  -0.5895999390328266  2.557761629599899  -3.4796444037955334 
H  0.7328227261353122  3.397530153060062  -3.4106747607980124 
C  1.4522652934334035  0.8382918354243882  -3.822332453432174 
H  1.9381732077610785  0.05385797683661786  -3.5592282339775503 
H  2.034650706285977  1.426018749874697  -4.310255567177849 
H  0.7125044897310209  0.5845405328185267  -4.379842076426668 
C  3.3690349162204742  2.2249834928712087  -1.839876037687258 
H  3.7470832251076125  2.5024292314634873  -0.9808507189191908 
C  3.4211295460235114  3.4632370293184547  -2.7719138207312604 
H  2.845188522935536  4.14933959366748  -2.424193805319332 
H  3.1285168962658787  3.2160836098492434  -3.6511899061825286 
H  4.321174201058927  3.7947392171702017  -2.8140964995427353 
C  4.292765795831996  1.1245867197358588  -2.3964546518339596 
H  4.261358298242827  0.358577572296058  -1.81962235806587 
H  5.194826130031386  1.4554279784565822  -2.4384635198526103 
H  4.002355346804289  0.8750404039320534  -3.2761361495161037 
C  5.9787831484366585  -1.3493714777193944  2.980995709067633 
H  6.333203666826925  -1.4001566651302064  2.067971486561113 
C  5.821907218927701  0.13754968975900628  3.320278768540634 
H  5.168785237050579  0.5304112074651322  2.7362988761688527 
H  6.663781618763207  0.5837210066624197  3.202731029837272 
H  5.534394784753598  0.2307137518083393  4.231198412492719 
C  7.004195169143677  -1.9887402035846642  3.8879643525029453 
H  7.091501583658703  -2.918146184225996  3.665347522203306 
H  6.720910120554078  -1.902747838776008  4.800488979261135 
H  7.850254894001027  -1.5496729330269097  3.7719611460848466 
C  3.9800748643260118  -2.0944949623874023  4.27194446003488 
H  4.491679747506417  -1.5280511557263776  4.885703294921486 
C  2.6354769663151485  -1.459053117167278  4.164298633325187 
H  2.721016005486705  -0.6001265562220818  3.7462597288193225 
H  2.2628348634874618  -1.3521070981493182  5.041520693134677 
H  2.0600007607862802  -2.0168577864089787  3.6365756019514768 
C  3.9235591938871384  -3.460617619014942  4.9264906891461395 
H  4.808785906610901  -3.829559240319075  4.974259268251672 
H  3.362297300693129  -4.041136674868391  4.40679884483901 
H  3.565677718784139  -3.3755763149010733  5.813262478488071 
C  6.54448848863716  -3.632939698541336  0.29947507723932487 
H  6.564334885251861  -2.652779147387881  0.29805222659129815 
C  6.461190294987319  -4.071145375302906  -1.153141642955206 
H  5.632458179014707  -3.7702477734001616  -1.531253667525631 
H  6.506761577601047  -5.028481778741702  -1.2029578938358376 
H  7.192645444469547  -3.6895294434209007  -1.6449282377600722 
C  7.858871689557338  -4.098569113435668  0.9242183518121496 
H  7.894935020325038  -3.8154137968048762  1.8409824396982752 
H  8.596084799831097  -3.7173684199165176  0.4416909937266036 
H  7.910111005915436  -5.056343028844883  0.8836989808784768 
C  5.183787416048061  -5.503067290982555  1.1910479957630835 
H  5.942663819519426  -5.916936641080545  0.731872457102921 
C  5.202998240037847  -6.005853052738374  2.6010949886031502 
H  6.001171460799308  -5.70159262562364  3.039004787707051 
H  5.184044461826509  -6.966104521218041  2.5996944265158053 
H  4.434247350247721  -5.673202991913653  3.0693815958003183 
C  3.920457206016553  -5.976138942845912  0.4771196361743334 
H  3.9204592046273854  -5.647439909257622  -0.4249950102615433 
H  3.1470356522174754  -5.643301008983497  0.9386099501585097 
H  3.89840358416144  -6.935891537854349  0.46834329652503764 
Br  -1.654629867976521  1.654629867976521  0.0 
C  -1.352040782177733  -1.3199206589279684  -0.4819701001757076 
C  -1.6380700204479186  -1.599217458033982  -1.8139382277462257 
H  -1.1579680913617836  -1.159339363685303  -2.503515938957912 
C  -2.63068216563725  -2.52632649780156  -2.142289956238523 
H  -2.8368222554424674  -2.694399528648736  -3.0538898079700485 
C  -3.3101544432602585  -3.1961573187854975  -1.1619874135498987 
H  -3.9960123560788676  -3.811990145619169  -1.3868663427944008 
C  -2.9974710358883443  -2.9701089012107795  0.12423560353005347 
H  -3.438659168087169  -3.468581175155742  0.8017084178296768 
C  -2.0389854250767776  -2.015940632791841  0.4912562833419403 
H  -1.8619130127668426  -1.8492165108145995  1.4101568590026907 

-Pd 0
lanl2dz
F 1 1.0
1.472 1.0
****
-H 0
6-31g(d,p)
****
-P 0
6-31+g(d)
****
-N 0
6-31+g(d)
****
-C 0
6-31g(d)
****
-Br 0
6-31+g(d)
****

-Pd 0
lanl2dz


