%chk=KUBIBULE_PN_Pd_gaussain.chk
%nprocshared=32
%mem=64GB
#p opt rwb97xd/gen pseudo=read

This Gaussian input file was generated using the DART python program. This file was generated on the 2023-10-04 at 16:41:16

0 1
Pd  0.0  0.0  0.0 
P  1.5799846992930036  1.4127095773725042  2.2335634654821598e-15 
N  1.5799846992930024  -1.4127095773725038  2.220446049250313e-16 
N  1.6034448232279568  -2.7877561977917757  -0.005836459414371709 
H  0.9767973354752408  -3.2382794760325497  0.319955823883444 
C  2.7874386930356483  -3.1662356096709336  -0.3898279710932828 
C  3.608712368958513  -2.009794571705762  -0.6197908049298853 
H  4.520035476139065  -1.996731263934943  -0.8861156522665066 
C  2.8117883873725766  -0.9435014112943485  -0.3761091609083259 
C  3.087302676048896  -4.62794344621058  -0.5258047790055863 
H  2.2894591454631694  -5.147651942393872  -0.29603822422135456 
H  3.8195882383033943  -4.868839370929199  0.07778841907371536 
H  3.3482836544245487  -4.823254396471976  -1.4513011169962307 
C  3.0722790692078803  0.5579599321935909  -0.48634934726689977 
H  3.311510946669026  0.7946976278649311  -1.4181229583198454 
H  3.8219564667640267  0.8173872312437214  0.10471684708106499 
C  1.4819157802684124  3.8722017445186383  1.4276615379242383 
H  0.8369073267913454  4.131616804676729  0.7803118785388993 
C  1.8427323307194234  4.7926051953243975  2.473483346200134 
H  1.4283090848000821  5.646822544260654  2.48172130820483 
C  2.723119606665345  4.51398964241503  3.4302978517494296 
H  2.9520936745361874  5.142244157154525  4.105661539662961 
C  3.2738755541454854  3.2792215570705894  3.3780273846567352 
H  3.9038317725526728  3.019965191950453  4.042089166447271 
C  2.9165272462197773  2.337972215168959  2.322546895404364 
H  3.3176439276029175  1.4767557560416404  2.3278306861254583 
C  2.049032222162068  2.632414970185632  1.3456179792322187 
C  0.0015279639728023042  2.254988881667364  -2.0118723737550903 
H  -0.6689374320243282  1.6812765822806608  -1.6594777224011985 
C  -0.21600487519643896  2.9784914659005652  -3.1184937383106774 
H  -1.0478835033524871  2.919499050661898  -3.570898925020055 
C  0.8115422532934289  3.8410784544211936  -3.6128191837078836 
H  0.6406980817367164  4.345600375569085  -4.398529785727704 
C  2.029554471221388  3.9703529372484914  -3.0051979159201325 
H  2.6938593240786446  4.5533795431358115  -3.3525506031096706 
C  2.249047922676372  3.24624666913457  -1.9082451378815588 
H  3.0850050917957432  3.3106938644097195  -1.461104063477619 
C  1.2399223140910167  2.375557534084086  -1.3985918476907853 
Br  -1.654629867976521  1.654629867976521  0.0 
C  -1.352040782177733  -1.3199206589279684  -0.4819701001757076 
C  -1.6380700204479186  -1.599217458033982  -1.8139382277462257 
H  -1.1579680913617836  -1.159339363685303  -2.503515938957912 
C  -2.63068216563725  -2.52632649780156  -2.142289956238523 
H  -2.8368222554424674  -2.694399528648736  -3.0538898079700485 
C  -3.3101544432602585  -3.1961573187854975  -1.1619874135498987 
H  -3.9960123560788676  -3.811990145619169  -1.3868663427944008 
C  -2.9974710358883443  -2.9701089012107795  0.12423560353005347 
H  -3.438659168087169  -3.468581175155742  0.8017084178296768 
C  -2.0389854250767776  -2.015940632791841  0.4912562833419403 
H  -1.8619130127668426  -1.8492165108145995  1.4101568590026907 

-Pd 0
lanl2dz
F 1 1.0
1.472 1.0
****
-H 0
6-31g(d,p)
****
-P 0
6-31+g(d)
****
-N 0
6-31+g(d)
****
-C 0
6-31g(d)
****
-Br 0
6-31+g(d)
****

-Pd 0
lanl2dz


