%chk=OKALOXEV_PN_Pd_gaussain.chk
%nprocshared=32
%mem=64GB
#p opt rwb97xd/gen pseudo=read

This Gaussian input file was generated using the DART python program. This file was generated on the 2023-08-11 at 15:55:49

0 0
Pd  0.0  0.0  0.0 
P  1.361660904006574  1.624185821419457  0.0 
N  3.980908048725577  1.7211624160447854  1.1073120178957394 
N  1.361660904006574  -1.624185821419458  0.0 
C  3.0066497612201966  1.0109226271074299  0.46953198415581227 
C  3.38985929919052  -0.3141520451484272  0.35641075292754265 
C  4.680368515601714  -0.4157628047201165  1.0015831375636481 
C  5.006414146097969  0.8447097058764905  1.4699139361073823 
C  6.175138513737111  1.1339316987082348  2.184945824451469 
C  7.030475454741155  0.06910212244182246  2.387560979023305 
C  6.734385441797554  -1.2046515070486516  1.9247784106448877 
C  5.572827919388746  -1.4754653506368132  1.2671186093368316 
C  2.690312506324288  -1.4231599531387884  -0.2456027889512164 
C  0.7734374796117134  -2.7690741774665995  -0.4174038154843235 
C  1.3957073969215616  -3.770591933962213  -1.0870689059849465 
C  2.7589787530630647  -3.5529098342065266  -1.4476782277863993 
C  3.454655392411965  -4.542741877312885  -2.2228227819852444 
C  4.730373982217611  -4.25084793651634  -2.6772523881406998 
C  5.315651801719648  -3.0219934799150066  -2.4073476484824186 
C  4.679467212840503  -2.0856370329224556  -1.624178348108478 
C  3.378254567177441  -2.3725822142273216  -1.10262368779713 
C  1.0445971187137282  3.1198321526237227  0.9843730481941391 
C  1.0082435090089783  4.388730161595907  0.425910302894262 
C  0.6665474293939517  5.474913784636161  1.181236018208438 
C  0.3738386080481795  5.329382462491369  2.5241948523434097 
C  0.4255801262601503  4.066735579385513  3.102304879826246 
C  0.7371461908518744  2.954381170072263  2.3450498795283203 
C  1.5160890023718108  2.208197873791038  -1.726036099019978 
C  2.7256606019896497  2.1674602906109466  -2.4246813986639255 
C  2.761964085065362  2.510338588559206  -3.7591494349663077 
C  1.6029559710920882  2.917203943055695  -4.411268929426188 
C  0.40822216005748124  2.9507961923417514  -3.721421597360135 
C  0.34992478163763097  2.6191852073811206  -2.392576391806496 
C  4.122855715416309  3.191576812910292  1.2701618610387506 
H  6.36284709778871  1.9874638264474411  2.5028463189310073 
H  7.82659805461553  0.20945935065648946  2.8472727848943222 
H  7.344454966889337  -1.891076034523992  2.0671345929292313 
H  5.373252449247488  -2.342794560399809  0.9984643080316224 
H  -0.13064482160616153  -2.8773287704332695  -0.23052052108318236 
H  0.9552478335251613  -4.560661621849606  -1.3010040159930496 
H  3.057243718278137  -5.362062938025635  -2.4162228872972134 
H  5.199539455359306  -4.885593097078698  -3.170027083061622 
H  6.154150654998486  -2.82693424111244  -2.7609173395022903 
H  5.091047422976981  -1.2739604515766974  -1.436804396026329 
H  1.2181682439013675  4.502473766276893  -0.4732129467631767 
H  0.630720464706652  6.316699319252589  0.790126184131319 
H  0.1430927088768703  6.0710085800911955  3.0363114130104427 
H  0.2490811453837154  3.9688360731202557  4.01027027367261 
H  0.7421280087500896  2.1080104735231386  2.7303036731675037 
H  3.5056996105937674  1.908870722557125  -1.9895226341311796 
H  3.5653656821334714  2.471446025179486  -4.226137585075234 
H  1.6324510743878906  3.164043898012095  -5.306783912840051 
H  -0.3694409416017195  3.201387814699529  -4.165124244548463 
H  -0.4580750284324515  2.6662026477459553  -1.933518740494321 
H  5.051651479537032  3.4162083083885277  1.3595663899544808 
H  3.647961794351609  3.473464081572613  2.055011962333196 
H  3.7589187083856084  3.6353395249687543  0.4987560726886368 
Br  -1.654629867976521  1.654629867976521  0.0 
C  -1.352040782177733  -1.3199206589279684  -0.4819701001757076 
C  -1.6380700204479186  -1.599217458033982  -1.8139382277462257 
H  -1.1579680913617836  -1.159339363685303  -2.503515938957912 
C  -2.63068216563725  -2.52632649780156  -2.142289956238523 
H  -2.8368222554424674  -2.694399528648736  -3.0538898079700485 
C  -3.3101544432602585  -3.1961573187854975  -1.1619874135498987 
H  -3.9960123560788676  -3.811990145619169  -1.3868663427944008 
C  -2.9974710358883443  -2.9701089012107795  0.12423560353005347 
H  -3.438659168087169  -3.468581175155742  0.8017084178296768 
C  -2.0389854250767776  -2.015940632791841  0.4912562833419403 
H  -1.8619130127668426  -1.8492165108145995  1.4101568590026907 

-Pd 0
lanl2dz
F 1 1.0
1.472 1.0
****
-P 0
6-31+g(d)
****
-H 0
6-31g(d,p)
****
-N 0
6-31+g(d)
****
-Br 0
6-31+g(d)
****
-C 0
6-31g(d)
****

-Pd 0
lanl2dz
