%chk=EBUQOFOR_PN_Pd_gaussain.chk
%nprocshared=32
%mem=64GB
#p opt rwb97xd/gen pseudo=read

This Gaussian input file was generated using the DART python program. This file was generated on the 2023-08-11 at 15:55:49

0 0
Pd  0.0  0.0  0.0 
P  1.5848280632295728  1.4072739640880165  1.0579218418026202e-15 
N  1.584828063229573  -1.4072739640880165  2.220446049250313e-16 
C  2.56018193865646  -1.0132205145456807  0.751478553648457 
C  2.556211923710661  0.40856210281173166  1.2038382423494296 
C  3.69799869080569  -1.878402576511156  1.1747653337181712 
C  3.933432385668682  -2.0867878074494985  2.5320069042758746 
C  4.9180535362812545  -2.971349216078064  2.9251326400545317 
C  5.701339121229557  -3.606704337267586  2.0193669460748547 
C  5.524316530263274  -3.346483819198586  0.653805763167425 
C  4.517175548459093  -2.5108778959680937  0.25357034015656243 
C  1.5343901476850745  -2.7588993821228476  -0.4894994851863429 
C  1.4686373963005064  -3.851035774339845  0.36679951427623675 
C  1.351853088058495  -5.116162796819633  -0.16381449075931334 
C  1.3204734527647728  -5.330879559661059  -1.5174946524828223 
C  1.3875632298967273  -4.230969300891297  -2.379214847475038 
C  1.488936016073838  -2.956186972943818  -1.8615051077796265 
C  2.694247951280789  1.7504864034036287  -1.397437023087466 
C  2.2809901126649943  1.449611384889097  -2.68075517228372 
C  3.1001618048379127  1.7103633915090737  -3.7585183743769592 
C  4.351679958348406  2.258245758180769  -3.5484380713402226 
C  4.78572993674565  2.5269871402080333  -2.2837547371258706 
C  3.968778044606125  2.291082662137809  -1.2066262103677634 
C  1.2758374115452038  2.9991794474327538  0.8080343738162613 
C  0.5406061538098754  3.008798896342814  1.9909906341452768 
C  0.18771395043041061  4.2096904804454125  2.5963045246397556 
C  0.5764291869839453  5.401088774441802  2.022551677210121 
C  1.269556979158404  5.407562183481173  0.8416854194608206 
C  1.6205223072416393  4.209693166489562  0.23181178778374195 
H  3.464911518709149  0.7426851250511959  1.2531433339645563 
H  2.157865954663511  0.4734518913890242  2.0856945992932934 
H  3.4320819829436164  -1.633104007213948  3.169834649902594 
H  5.046874549547574  -3.1375025422724616  3.8323482532003963 
H  6.3506870680269145  -4.21022898966205  2.3009385674116496 
H  6.08811514072231  -3.7370505560430276  0.025093809316400373 
H  4.379877421384972  -2.36410351139838  -0.6542066667874048 
H  1.5039433337347925  -3.7277368329624663  1.2875160677481123 
H  1.2920762352662771  -5.844762050529604  0.4112142870975364 
H  1.2558387091409235  -6.193355908242244  -1.8581915236964377 
H  1.3618640334042005  -4.357698199848493  -3.300374028870295 
H  1.5276796589608856  -2.227174871405475  -2.43546447563286 
H  1.44507643383877  1.0669653161479848  -2.8192832114244935 
H  2.8130480719946487  1.5187970036702234  -4.621709890474768 
H  4.900467231865993  2.446499564305636  -4.274793964070933 
H  5.64013373372806  2.8702258785961394  -2.150411082714304 
H  4.264307000944463  2.4931073192089315  -0.3482209890993385 
H  0.28521802473157076  2.2037678512796197  2.379815491903047 
H  -0.3057468583140246  4.2083197096863225  3.3837865442572497 
H  0.3663801522942449  6.205422521022226  2.439928661647225 
H  1.5065522225062378  6.21618390820515  0.4469378280369745 
H  2.0890991460023454  4.221233748078112  -0.5709107366003976 
Br  -1.654629867976521  1.654629867976521  0.0 
C  -1.352040782177733  -1.3199206589279684  -0.4819701001757076 
C  -1.6380700204479186  -1.599217458033982  -1.8139382277462257 
H  -1.1579680913617836  -1.159339363685303  -2.503515938957912 
C  -2.63068216563725  -2.52632649780156  -2.142289956238523 
H  -2.8368222554424674  -2.694399528648736  -3.0538898079700485 
C  -3.3101544432602585  -3.1961573187854975  -1.1619874135498987 
H  -3.9960123560788676  -3.811990145619169  -1.3868663427944008 
C  -2.9974710358883443  -2.9701089012107795  0.12423560353005347 
H  -3.438659168087169  -3.468581175155742  0.8017084178296768 
C  -2.0389854250767776  -2.015940632791841  0.4912562833419403 
H  -1.8619130127668426  -1.8492165108145995  1.4101568590026907 

-Pd 0
lanl2dz
F 1 1.0
1.472 1.0
****
-P 0
6-31+g(d)
****
-H 0
6-31g(d,p)
****
-N 0
6-31+g(d)
****
-Br 0
6-31+g(d)
****
-C 0
6-31g(d)
****

-Pd 0
lanl2dz
