%chk=LAMAPUJU_PN_Ni_gaussain.chk
%nprocshared=32
%mem=64GB
#p opt rwb97xd/gen pseudo=read

This Gaussian input file was generated using the DART python program. This file was generated on the 2023-10-04 at 16:41:16

0 1
Ni  0.0  0.0  0.0 
P  1.341275183360968  -1.5103247606061414  1.373703427110597e-16 
N  1.3412751833609682  1.5103247606061418  -7.393913591241475e-17 
N  1.1149678714399298  2.7021435249873784  -0.6222843509520898 
C  2.3918460465045914  -1.0677182679921182  1.4062082933227342 
C  2.7895283141438894  0.27819404373094864  1.580745003379802 
C  3.673167649481204  0.5868142406301461  2.621228020593705 
H  3.9799906432172847  1.480554948064662  2.725603967963222 
C  4.104256963459992  -0.386037359452418  3.495799851600233 
H  4.677160894935893  -0.15021682979556408  4.215905158546248 
C  3.7145599884273173  -1.7004174562226635  3.3379129019665323 
H  4.013767227723868  -2.366338029223373  3.9473452923158985 
C  2.8780657209032388  -2.042270134843114  2.2758059457143025 
H  2.6379159669004464  -2.9518345714671126  2.1435870692961867 
C  2.4101973102211725  1.391496281009492  0.7197052029445327 
H  3.0211828703149455  2.117755168243641  0.6817653285334766 
C  0.7674677689368842  -3.1903427714223525  0.363792570684308 
C  -0.0877409056130698  -3.3884738044327007  1.4511626809654392 
H  -0.39676432216400515  -2.6455658224767573  1.9555386006616093 
C  -0.4819912327621525  -4.671771874194954  1.7888579188461773 
H  -1.0680064750861145  -4.807763212188757  2.5242175259464488 
C  -0.030416365878342067  -5.749420438565171  1.0688606957197881 
H  -0.2879114853581075  -6.627497306263319  1.325760633161424 
C  0.7892554646047757  -5.575312742089039  -0.022255347760578508 
H  1.073136399128367  -6.32599316167309  -0.5298335808115409 
C  1.205136787624303  -4.277924341852788  -0.3798559267533419 
H  1.7804157729763235  -4.148088415094028  -1.125208716467755 
C  2.4530612019730755  -1.6833433635025987  -1.4104315197380097 
C  1.908382259300729  -1.9866911479990466  -2.657894617809638 
H  0.963825341053653  -2.023566465449081  -2.757626754829641 
C  2.710443890213178  -2.232271254128765  -3.742552394111193 
H  2.325884861330267  -2.448268984225618  -4.583870011838046 
C  4.083649561701046  -2.1627677885576446  -3.601554408071825 
H  4.6471790713309105  -2.36310039442618  -4.3392111024780355 
C  4.634742089528352  -1.8010737051071655  -2.387138175567568 
H  5.577344326783811  -1.7110634049744713  -2.3092661125989866 
C  3.8318507703661626  -1.569577685761182  -1.2873169525313057 
H  4.220402429555488  -1.3349913012687455  -0.4521491991116717 
C  1.7712047649660896  3.964425747146589  -0.22103821552403283 
H  2.742105487608211  3.93131578212163  -0.45994951075525436 
C  1.0430092606146562  4.945959297854618  -1.1430516461620408 
H  0.18123092303485944  5.23067025950728  -0.7457207070281248 
H  1.5977730388328308  5.7483979399342235  -1.3135104859871884 
C  0.8177999237225995  4.159538959010861  -2.423330871655275 
H  1.6272625550338904  4.180851597086846  -2.9916640133678403 
H  0.05922112972029381  4.537239275445492  -2.935466404747049 
C  0.5092648825453825  2.7330450477706436  -1.9793013461050393 
H  -0.48139127062489107  2.6372907346771055  -1.885113514035967 
C  1.6111212430730504  4.317127615575345  1.2752531424758868 
H  2.2104761970870097  3.6998855400194466  1.7872031588470016 
C  2.117524974440873  5.733728333384763  1.5192494276086579 
H  1.4584560654708687  6.3786571794225395  1.1858682392109325 
H  2.9675822133965752  5.8635050410918765  1.0501884543485358 
H  2.251034842929454  5.8720970474857825  2.4812159779492617 
C  0.20894991953779973  4.119945183182143  1.8134751299596394 
H  0.17873065396554644  4.393548116655973  2.7548432199132 
H  -0.039723112347414435  3.1753163376433715  1.7396834814545143 
H  -0.41937342007913014  4.664761428311939  1.2955333089649412 
C  1.004716799599611  1.668734101590514  -2.936306527767326 
H  0.7228033891806613  0.781623653595021  -2.5715253987554316 
C  2.518557925242427  1.6333611563846375  -3.1016805011125994 
H  2.8190205977708365  2.4597271126039506  -3.5369799369252717 
H  2.768650697191152  0.8639855092995373  -3.6552455642184647 
H  2.9415962347527533  1.555726601844895  -2.222117408078291 
C  0.3265962595365195  1.844360564135923  -4.288073752106762 
H  -0.6454639924810599  1.7789993301981437  -4.176865544020941 
H  0.6332106926921961  1.1432112533247816  -4.901323728323369 
H  0.553910397153444  2.7230852395278355  -4.6571208191549145 
Br  -1.5839191898578664  1.5839191898578664  0.0 
C  -1.2937473829822488  -1.2398794889499034  -0.4598005675376139 
C  -1.601562203225019  -1.4938654694550033  -1.7919791134336869 
H  -1.1309417375171225  -1.0428217585005106  -2.480879663633267 
C  -2.60218398542082  -2.411889969420291  -2.121542410022959 
H  -2.8231586547736818  -2.5626138747145775  -3.03270050271447 
C  -3.2683208079706407  -3.09759503004543  -1.143064365570095 
H  -3.9596020908062854  -3.707191723557817  -1.3683280760515548 
C  -2.9347449854640226  -2.896087320001541  0.14198826503765638 
H  -3.3668350933519986  -3.405606940434718  0.8171022443470677 
C  -1.9675509241539992  -1.9516175659140573  0.5112421903797603 
H  -1.7755298364628027  -1.8022912010877177  1.4301324877763764 

-Ni 0
lanl2dz
F 1 1.0
3.130 1.0
****
-H 0
6-31g(d,p)
****
-P 0
6-31+g(d)
****
-N 0
6-31+g(d)
****
-C 0
6-31g(d)
****
-Br 0
6-31+g(d)
****

-Ni 0
lanl2dz


