%chk=QORIBITE_PN_Pd_gaussain.chk
%nprocshared=32
%mem=64GB
#p opt rwb97xd/gen pseudo=read

This Gaussian input file was generated using the DART python program. This file was generated on the 2023-10-04 at 09:55:46

0 1
Pd  0.0  0.0  0.0 
C  1.7262952681381998  -3.157485371747408  -0.12348807142408402 
C  1.546382756629089  -3.7511567321516113  -1.383265200141043 
C  1.6720105819513094  -5.129159538098731  -1.495185423097712 
H  1.5310906756914127  -5.5442192936733115  -2.3383796292697387 
C  2.0040990083567385  -5.92084050643037  -0.3830965680914794 
C  2.1592132554728662  -5.316609641855731  0.8410492127030373 
H  2.3681042276270396  -5.855751453240702  1.5947646291362052 
C  2.0222975487497608  -3.9317550276998006  1.0192389343582036 
C  1.2452963155899703  -2.934967908203606  -2.5943493172381196 
H  1.0342864672397623  -3.5300103694637572  -3.3449912912821405 
H  2.0264903407017174  -2.3876268984660154  -2.821118349932538 
H  0.4790778420249773  -2.3519736660973867  -2.4134061647323177 
C  2.1544153184875228  -7.427820090517111  -0.5508146352590156 
H  2.008812875573138  -7.66844420293228  -1.4898650892505942 
H  1.4955091221361438  -7.886640564199139  0.009359888742182621 
H  3.0576198488202815  -7.697705844143776  -0.28066107452775585 
C  2.149981655524741  -3.345700409846386  2.3956946342518783 
H  2.3051470772286535  -4.064282072393226  3.0439404102958743 
H  1.324408442007293  -2.8701476670970445  2.625819074470837 
H  2.9038475754199893  -2.7189277019633775  2.415570183892069 
C  3.045779332447819  -0.5625626703139153  0.2611067642382318 
C  4.379765535034146  -1.1975690961835377  0.3184204660349632 
C  4.893239624814411  -1.7910559250778695  -0.835367007052396 
H  4.370452238338857  -1.801396033524716  -1.6283638549019925 
C  6.158061691669545  -2.3662182509181147  -0.8422494579459555 
H  6.504671863623708  -2.743325099828982  -1.6424867122664595 
C  6.910354722199894  -2.3876727783494225  0.3155461844142027 
H  7.767846218257279  -2.794445823203058  0.3181160423571987 
C  6.402420364151814  -1.8063711916428975  1.4888713453166411 
H  6.914570613914705  -1.825616263005069  2.288331818946252 
C  5.157951137587158  -1.2053986294086863  1.482644502201857 
H  4.827388534666612  -0.7950022235739866  2.2738152837834082 
C  2.8599708441032465  0.8936258733968203  0.2965976197465765 
C  3.912767797700927  1.768184576502025  0.5639632856769882 
H  4.765539073488188  1.427319273616916  0.8071307310335067 
C  3.7116418253211894  3.1440073244711626  0.4741915228283297 
H  4.425495772400197  3.748364725974614  0.6437889682328356 
C  2.4682389281062016  3.610963684515544  0.13784644257366435 
H  2.3139688623251393  4.543988136111363  0.05236568726450311 
C  1.4435102314532235  2.716400459964525  -0.07711233379238575 
H  0.5821551319109004  3.055140268164091  -0.2889893614130663 
N  1.6099263787515259  1.3784908614133058  2.7463381239152503e-15 
P  1.6099263787515254  -1.3784908614133058  4.440892098500626e-16 
Br  -1.654629867976521  1.654629867976521  0.0 
C  -1.352040782177733  -1.3199206589279684  -0.4819701001757076 
C  -1.6380700204479186  -1.599217458033982  -1.8139382277462257 
H  -1.1579680913617836  -1.159339363685303  -2.503515938957912 
C  -2.63068216563725  -2.52632649780156  -2.142289956238523 
H  -2.8368222554424674  -2.694399528648736  -3.0538898079700485 
C  -3.3101544432602585  -3.1961573187854975  -1.1619874135498987 
H  -3.9960123560788676  -3.811990145619169  -1.3868663427944008 
C  -2.9974710358883443  -2.9701089012107795  0.12423560353005347 
H  -3.438659168087169  -3.468581175155742  0.8017084178296768 
C  -2.0389854250767776  -2.015940632791841  0.4912562833419403 
H  -1.8619130127668426  -1.8492165108145995  1.4101568590026907 

-Pd 0
lanl2dz
F 1 1.0
1.472 1.0
****
-P 0
6-31+g(d)
****
-N 0
6-31+g(d)
****
-C 0
6-31g(d)
****
-H 0
6-31g(d,p)
****
-Br 0
6-31+g(d)
****

-Pd 0
lanl2dz


