%chk=MABOLIJO_PN_Ni_gaussain.chk
%nprocshared=32
%mem=64GB
#p opt rwb97xd/gen pseudo=read

This Gaussian input file was generated using the DART python program. This file was generated on the 2023-08-13 at 16:51:13

0 1
Ni  0.0  0.0  0.0 
P  1.3970653921703169  1.458872266512734  -1.261505686657445e-15 
N  1.3970653921703167  -1.458872266512734  -1.1102230246251565e-16 
H  1.7003543081578005  -1.1875866720953105  -0.7956001129340906 
C  2.4145045893894452  0.44197902366140607  1.1262064431557253 
C  3.2484489919933006  0.9789124193948315  2.0871722812123723 
H  3.323409776327223  1.929333002352633  2.1703624627375744 
C  3.9565483445265985  0.14901763162560222  2.942866232444591 
H  4.524403145248508  0.504870657223899  3.624587172030269 
C  3.825300642757737  -1.196004544092668  2.8454403241527766 
H  4.335183554917121  -1.7588405845383202  3.426346433143979 
C  2.9829965660404625  -1.761296481522752  1.886334314463535 
H  2.895817607896543  -2.711547810457657  1.8231835336734767 
C  2.2720681123760764  -0.9401555855733498  1.0134140587873217 
C  0.9520908011724398  -2.855016313358404  0.15379282760804489 
H  0.3751584148562639  -3.0898373993873305  -0.577086601009112 
H  0.4754313150341146  -2.95063598699402  0.9813732420018291 
H  1.71629856880738  -3.4366198364880916  0.15715879991519516 
C  2.5051880032581404  1.9758351133031442  -1.3561055909605 
C  3.855704172583094  2.274271727661939  -1.1355840418956813 
H  4.235101581840349  2.1633638204283834  -0.26336259526531003 
C  4.663642712805537  2.6587359969983693  -2.186315991931863 
H  5.5711991014600954  2.91635075781521  -2.0271106640639127 
C  4.1541803522821965  2.7553828338986497  -3.454129729090128 
H  4.737327213263372  2.9802308809343954  -4.17865871696573 
C  2.8348980488487063  2.479799310084715  -3.6841923406756227 
H  2.475591661860106  2.560002836250643  -4.564988273147908 
C  2.0131332879216135  2.0640899680669325  -2.635964597931873 
H  1.0892134069183093  1.8713160107743891  -2.80103220491947 
C  1.067362368783809  2.988682463902294  0.9293902981701141 
C  1.3107510376400984  4.240973752136235  0.40554877128841504 
H  1.7027196782778526  4.323361424284743  -0.46404526976439664 
C  0.9603331385200524  5.382555361594752  1.1120657030900696 
H  1.1623523805434672  6.246065388426157  0.7538660528753819 
C  0.3765026132649465  5.291917796514379  2.35229729822731 
H  0.15042947000405427  6.088423005827616  2.8355775848447347 
C  0.13406447670938926  4.048312299552822  2.887850935009354 
H  -0.2677387942177405  3.9919781420762037  3.754770201246795 
C  0.451713976948945  2.894147792728054  2.1894230531321255 
H  0.2615013880687225  2.036446362162763  2.567448775851819 
Br  -1.5839191898578664  1.5839191898578664  0.0 
C  -1.2937473829822488  -1.2398794889499034  -0.4598005675376139 
C  -1.601562203225019  -1.4938654694550033  -1.7919791134336869 
H  -1.1309417375171225  -1.0428217585005106  -2.480879663633267 
C  -2.60218398542082  -2.411889969420291  -2.121542410022959 
H  -2.8231586547736818  -2.5626138747145775  -3.03270050271447 
C  -3.2683208079706407  -3.09759503004543  -1.143064365570095 
H  -3.9596020908062854  -3.707191723557817  -1.3683280760515548 
C  -2.9347449854640226  -2.896087320001541  0.14198826503765638 
H  -3.3668350933519986  -3.405606940434718  0.8171022443470677 
C  -1.9675509241539992  -1.9516175659140573  0.5112421903797603 
H  -1.7755298364628027  -1.8022912010877177  1.4301324877763764 

-Ni 0
lanl2dz
F 1 1.0
3.130 1.0
****
-C 0
6-31g(d)
****
-N 0
6-31+g(d)
****
-H 0
6-31g(d,p)
****
-Br 0
6-31+g(d)
****
-P 0
6-31+g(d)
****

-Ni 0
lanl2dz


