%chk=BOSASEBE_PN_Pd_gaussain.chk
%nprocshared=32
%mem=64GB
#p opt rwb97xd/gen pseudo=read

This Gaussian input file was generated using the DART python program. This file was generated on the 2023-10-04 at 09:55:46

0 1
Pd  0.0  0.0  0.0 
P  1.5212537107596522  1.4757666304331454  2.6646849278689282e-15 
N  1.521253710759649  -1.4757666304331454  1.3322676295501878e-15 
H  1.6778712676125238  -1.8630570313769907  0.7979980866030985 
H  1.2819515877702101  -2.1267444342326756  -0.5730802848581503 
C  2.7908992490617264  -0.8711260411970927  -0.4821491210382295 
H  2.7390484840410307  -0.7068313281984433  -1.4370466419521166 
H  3.530281039360772  -1.4763348232508346  -0.31613337389594076 
C  3.0111108122998234  0.44246554233873026  0.26300876094390213 
H  3.7985258779254925  0.8945939386856261  -0.07847056147919551 
H  3.1401678502530146  0.27328355255033143  1.210263903598721 
C  1.9373746644560312  2.2982454153367895  -1.5973527006513921 
C  3.049578618720388  3.140971527550738  -1.7055014589036441 
H  3.5586085304814348  3.3295842521237984  -0.9490746620080749 
C  3.403459556190219  3.6985285985887892  -2.9206202574706723 
H  4.151315312741213  4.247369379574787  -2.9784296383720097 
C  2.6590305711433646  3.4461522049779085  -4.029102960163927 
H  2.8961011216205392  3.82847236208459  -4.843993377070632 
C  1.5564157678351245  2.6291452608338184  -3.947918856141496 
H  1.0507194134226583  2.448324269562537  -4.708511740837132 
C  1.2003648155573945  2.075292982875683  -2.7270289620139643 
H  0.4439080287609747  1.5396975820174799  -2.6743773116201424 
C  1.6695209135396412  2.865383848839889  1.1753362424801366 
C  2.162617623818874  2.704931145738384  2.452794075200752 
H  2.524004649956955  1.8846977531153777  2.7032387576462695 
C  2.131927689540619  3.734118720981369  3.3716101519535857 
H  2.501221449670327  3.6120198665391094  4.216256349170607 
C  1.5648387831522248  4.936352785915645  3.0489054334215813 
H  1.526238750108582  5.621424855679997  3.6764062355547766 
C  1.0479068477906175  5.123698911175877  1.7890253107300085 
H  0.6480315335055513  5.933662143403975  1.5690876025850964 
C  1.1215861461810293  4.100508320698296  0.8390539656111886 
H  0.8041634638274926  4.246359389262452  -0.02257792013016463 
Br  -1.654629867976521  1.654629867976521  0.0 
C  -1.352040782177733  -1.3199206589279684  -0.4819701001757076 
C  -1.6380700204479186  -1.599217458033982  -1.8139382277462257 
H  -1.1579680913617836  -1.159339363685303  -2.503515938957912 
C  -2.63068216563725  -2.52632649780156  -2.142289956238523 
H  -2.8368222554424674  -2.694399528648736  -3.0538898079700485 
C  -3.3101544432602585  -3.1961573187854975  -1.1619874135498987 
H  -3.9960123560788676  -3.811990145619169  -1.3868663427944008 
C  -2.9974710358883443  -2.9701089012107795  0.12423560353005347 
H  -3.438659168087169  -3.468581175155742  0.8017084178296768 
C  -2.0389854250767776  -2.015940632791841  0.4912562833419403 
H  -1.8619130127668426  -1.8492165108145995  1.4101568590026907 

-Pd 0
lanl2dz
F 1 1.0
1.472 1.0
****
-P 0
6-31+g(d)
****
-N 0
6-31+g(d)
****
-C 0
6-31g(d)
****
-H 0
6-31g(d,p)
****
-Br 0
6-31+g(d)
****

-Pd 0
lanl2dz


