%chk=XUXOKAXA_PN_Ni_gaussain.chk
%nprocshared=32
%mem=64GB
#p opt rwb97xd/gen pseudo=read

This Gaussian input file was generated using the DART python program. This file was generated on the 2023-10-04 at 09:55:46

0 1
Ni  0.0  0.0  0.0 
P  2.270204869718712  -1.438789055422105  -1.2496558780931897 
P  1.2842648548878068  1.559090690915701  5.860607397605777e-16 
N  1.2842648548878066  -1.5590906909157018  2.220446049250313e-16 
C  3.3563015436905848  0.0281088378984935  -1.282328731639167 
C  4.618439131391856  -0.05521031137030552  -1.8608202433113716 
H  4.884077834236447  -0.8626719666384827  -2.284385922778694 
C  5.494213225142289  1.0180692417371517  -1.8308009562267342 
H  6.36133049348587  0.9371290624805599  -2.209467525020859 
C  5.099116621049319  2.208431820266809  -1.2453748592081257 
H  5.7015655545918005  2.941889695208241  -1.2044361469676572 
C  3.8327711242919826  2.326264417222474  -0.723739793345894 
H  3.5536257165148513  3.161129273118389  -0.3687977506025245 
C  2.9474633338618927  1.2497137747359872  -0.7042213311690305 
C  1.7538819558423477  -2.187085554014361  1.2817974295546006 
H  2.553337690666363  -2.7449230679367798  1.0562046634519089 
C  2.213904122870916  -1.1449905146002322  2.291483145344835 
H  2.8983824840205576  -0.5751638007493474  1.8842820288190827 
H  2.5883819708979994  -1.5943064261644015  3.078178469439422 
H  1.4500021887442647  -0.5939077905443451  2.5626739384863306 
C  0.6780346659864118  -3.1435868779521816  1.8213131996807952 
H  -0.17777195929614553  -2.636919107050386  1.9209502412461201 
C  1.0696847042397686  -3.7116076224541343  3.183844341105332 
H  0.39149629329589675  -4.356405064872034  3.475599165423227 
H  1.1293163623825475  -2.983543346518198  3.8365056739978503 
H  1.9381658824123953  -4.159804352812126  3.1141531360913772 
C  0.4540545640305613  -4.283338465434452  0.8445516715893675 
H  0.19509165944187723  -3.9199595239135743  -0.02772370288028947 
H  -0.2601353666065356  -4.86518175093775  1.180428425907557 
H  1.2800730412032242  -4.800741420054243  0.7514874576289317 
C  3.3880165166319998  -2.8571395323281115  -1.3765638238078695 
C  4.555551585197103  -2.9324086656016064  -0.604539989171267 
H  4.773906612455913  -2.230303690965987  -0.0020766320592098264 
C  5.390521263981411  -4.0332380977829825  -0.7214585794554007 
H  6.1753267093651  -4.088662772885909  -0.1896377277714365 
C  5.08458562352108  -5.053228476960984  -1.610351554048217 
H  5.679512399328402  -5.787067744084065  -1.7148016447889771 
C  3.921911283858533  -5.001596262447072  -2.340803410308892 
H  3.700583910980093  -5.717171287364159  -2.9252705759646327 
C  3.0714050431435376  -3.915908460664462  -2.232531569254493 
H  2.2699252773146  -3.8895665902144003  -2.741261350993298 
C  1.3062938181400856  -1.4096180519230788  -2.765732319833357 
C  0.17104500910183762  -2.2318249911788732  -2.8624383724715967 
H  -0.15409193624196882  -2.687087298327354  -2.0943978406880595 
C  -0.47635648866594416  -2.3793875199916634  -4.082227334045866 
H  -1.2264286374252347  -2.958444258166243  -4.151330124367415 
C  -0.037108486683608  -1.688196798195309  -5.198721865540399 
H  -0.4856826781252943  -1.7906696376079827  -6.030187338037704 
C  1.062263696022649  -0.8450795262757663  -5.096622699615148 
H  1.3509232090396304  -0.35486210374013094  -5.857632097840513 
C  1.7437456485124259  -0.7104750281392651  -3.8950090522591774 
H  2.5044596909665824  -0.1454929747330942  -3.840387399574448 
C  1.571453188334829  2.1600935193333726  1.6881417035799953 
C  0.45154708833501656  2.536081897312659  2.4348227109772296 
H  -0.41267616307446864  2.512055180830889  2.042012860517289 
C  0.6063594005152984  2.9467395990939202  3.7546622807602894 
H  -0.15665655597021577  3.1915781817525097  4.2647174724701955 
C  1.8581226729689233  2.999973298380043  4.3306021239700785 
H  1.956406676219014  3.297027871727529  5.227289853984555 
C  2.9622022904221925  2.6254491007805782  3.608388004932838 
H  3.8224914663124685  2.660117882599968  4.010459577433431 
C  2.83275680972977  2.1946217160018957  2.2903917332942756 
H  3.6004270940320864  1.9248049552123558  1.8006167745670592 
C  0.8140838296636332  3.032886370915845  -0.9743271868998 
C  0.3366882099106161  2.8338806223677793  -2.2644758427862106 
H  0.18506140752007272  1.9525260526775816  -2.583827725954338 
C  0.08131359450260289  3.927498283569113  -3.088142715322526 
H  -0.25258273200240877  3.7896730427078555  -3.967186386665392 
C  0.3079011262274367  5.201700917562912  -2.6385109126326896 
H  0.13988543839230028  5.940896361237275  -3.2106736907757183 
C  0.781298014706016  5.4137619329524735  -1.3546630627179048 
H  0.9388590922110979  6.298756986825582  -1.0473528261887965 
C  1.0292945028970326  4.328764318730005  -0.5090608755302903 
H  1.3409770966219496  4.473829911333318  0.37681707577653556 
Br  -1.5839191898578664  1.5839191898578664  0.0 
C  -1.2937473829822488  -1.2398794889499034  -0.4598005675376139 
C  -1.601562203225019  -1.4938654694550033  -1.7919791134336869 
H  -1.1309417375171225  -1.0428217585005106  -2.480879663633267 
C  -2.60218398542082  -2.411889969420291  -2.121542410022959 
H  -2.8231586547736818  -2.5626138747145775  -3.03270050271447 
C  -3.2683208079706407  -3.09759503004543  -1.143064365570095 
H  -3.9596020908062854  -3.707191723557817  -1.3683280760515548 
C  -2.9347449854640226  -2.896087320001541  0.14198826503765638 
H  -3.3668350933519986  -3.405606940434718  0.8171022443470677 
C  -1.9675509241539992  -1.9516175659140573  0.5112421903797603 
H  -1.7755298364628027  -1.8022912010877177  1.4301324877763764 

-Ni 0
lanl2dz
F 1 1.0
3.130 1.0
****
-P 0
6-31+g(d)
****
-N 0
6-31+g(d)
****
-C 0
6-31g(d)
****
-H 0
6-31g(d,p)
****
-Br 0
6-31+g(d)
****

-Ni 0
lanl2dz


