%chk=LILIDOLU_PN_Ni_gaussain.chk
%nprocshared=32
%mem=64GB
#p opt rwb97xd/gen pseudo=read

This Gaussian input file was generated using the DART python program. This file was generated on the 2023-10-04 at 09:55:46

0 1
Ni  0.0  0.0  0.0 
P  1.6013605004807627  1.2311557771054003  1.3992160524396823e-15 
N  1.6013605004807625  -1.2311557771053998  -1.1102230246251565e-16 
N  3.9147090300074856  -0.6022114392730717  -0.258265620719051 
C  2.599588326323436  -0.3700017625478762  -0.05108924470856949 
C  0.7968770899939581  3.140832747900884  -4.1211992283151515 
H  0.8922054058125043  3.5947200385196414  -4.972636166448539 
H  -0.12677342515206136  2.8579656148571786  -4.028973413522533 
C  1.9214869199087876  2.1599902603327017  -1.572441845777489 
C  3.3885173619771756  2.591505337367926  -1.7624638453880555 
H  3.6537982857537408  3.178539085200577  -1.038803931902574 
H  3.9651179829004715  1.810328992436831  -1.7472066480379023 
C  2.0096689880653393  1.1610773462484643  2.7102205671301434 
H  1.2672174533373481  0.5365392379939675  2.7199883671881397 
H  2.823963480701213  0.6598588112139878  2.549338904406312 
C  3.1708842472833156  2.3617599791769264  -4.242719507165376 
H  3.285161865596623  2.8063990250067334  -5.0969157755230805 
H  3.755518484975492  1.5875465102355388  -4.223668978882839 
C  1.7325115418552834  -2.6504157623106757  0.16827798056043178 
C  2.2450667796771437  -3.1454482401933035  1.353636569352365 
H  2.489556726884093  -2.5647695126964214  2.0377681511020795 
C  0.999209059540226  3.399125196276227  -1.6227422314444833 
H  0.07556779586471518  3.1289066981896765  -1.5011768197199 
H  1.2336939074953126  4.012080875024094  -0.909634342012432 
C  0.4738159076469812  2.93781112817729  1.8675147800831775 
H  0.303912523634424  3.588717881735409  1.1679226858786138 
H  -0.2605769051099196  2.3034775210718257  1.8786808656818947 
C  1.80516300801707  2.1956392625273633  1.5851477137069185 
C  3.5379118017565245  3.320126159916529  -3.1030439841010238 
H  4.466746049920447  3.613427728016215  -3.2120644848704827 
C  1.1642575024399577  4.094051484979946  -2.9826503440627343 
H  0.5786510481316514  4.880303925979644  -3.016810403993558 
C  0.5691179376236466  3.6503490671719083  3.2284471107211576 
H  -0.2702637185686845  4.126950319354286  3.400107623553928 
C  1.7170795252024198  1.9185129870838353  -4.080154246252044 
H  1.4791314033364347  1.3060145900305091  -4.806865320137366 
C  2.1014131542090855  1.881522769560695  4.067355096204952 
H  2.25356892326286  1.2225191242969329  4.776423081290115 
C  0.7989221629173227  2.6217830940037627  4.337980741071244 
H  0.8467128378634037  3.068735145265504  5.196315113714636 
H  0.06097466962557552  1.9921639187418831  4.361545148277634 
C  2.6121011935840928  4.53873537891186  -3.1615116604275255 
H  2.851069288835098  5.164576790964168  -2.4615105772765804 
H  2.713542033395175  4.986904132420266  -4.017100150530756 
C  3.03353110406431  3.9145135019639463  2.9521529622757487 
H  3.7748758921574703  4.556609757937836  2.951882349198669 
C  1.535651652903088  1.2072694821727294  -2.7321378428374787 
H  2.09418051298562  0.41595011941056814  -2.7023561610078883 
H  0.6110808453411577  0.9293691982586911  -2.631001726613814 
C  2.0448475853962553  -5.378729264520263  0.5024936138962004 
H  2.180281269441724  -6.293389842767783  0.6043475967627743 
C  4.892878153165651  0.2923195010676469  0.42636120702962066 
H  4.422435764815849  1.1370507969278343  0.5862561945624165 
C  2.3912068483800497  -4.511661692852107  1.5148093092733106 
H  2.7273453430333627  -4.848260332688181  2.3133098340525624 
C  2.945014723701169  3.231455536726453  1.5842244822253124 
H  3.7855058559827706  2.792494797517141  1.3843198399860204 
H  2.7818765639736354  3.896486790468363  0.8971315973929975 
C  1.3207107836408474  -3.5172194153049787  -0.8340611899251726 
H  0.932738747864953  -3.1831294060235713  -1.6098275820525187 
C  1.7191027599313164  4.6512568669121075  3.2122438739676675 
H  1.7644061637807873  5.112675483113237  4.064006946789365 
H  1.5705605651067704  5.311361177116246  2.51676450978304 
C  1.4913346355255743  -4.881023798327627  -0.6713007647099763 
H  1.2349331518701558  -5.464820993910676  -1.347790981644919 
C  3.2706854543248687  2.8601280544521597  4.028683859290715 
H  4.092626714709031  2.3787858181404458  3.8393424057720225 
H  3.3642636682184186  3.2913715005482143  4.891736388447367 
C  6.13296240724426  0.645404953846044  -0.3747241541040103 
H  6.674853590565482  -0.1397003902336187  -0.48841973069469985 
H  6.635842916612053  1.3173418040673779  0.09321491523369746 
H  5.8730606748081815  0.982808382173082  -1.23486986038283 
C  4.351114349216954  -1.8128730449915462  -1.0124989094333858 
H  3.5376597494899955  -2.3313014208877645  -1.1866479641212506 
C  4.92419484848146  -1.4562676233508913  -2.381917641822906 
H  4.388940958748069  -0.7683189366369021  -2.7843941976293083 
H  4.91972213089154  -2.2352220358093717  -2.9437075207890655 
H  5.824441680741655  -1.1404420452796984  -2.2784551112069176 
C  5.309608221972031  -0.22863971622000445  1.8063817879180641 
H  4.549977616429974  -0.6192560979508994  2.2436240496532323 
H  5.644820041156132  0.4994740299605138  2.3340554928743034 
H  5.995605457340023  -0.8931478517570746  1.7032056721134086 
C  5.270250479642432  -2.7256277921138476  -0.22194550494242876 
H  6.108748150991517  -2.2839935366353457  -0.07232067568571107 
H  5.418501537873248  -3.5355343234744474  -0.7155732636765622 
H  4.864397668844873  -2.9360761811951743  0.6235098584569791 
Br  -1.5839191898578664  1.5839191898578664  0.0 
C  -1.2937473829822488  -1.2398794889499034  -0.4598005675376139 
C  -1.601562203225019  -1.4938654694550033  -1.7919791134336869 
H  -1.1309417375171225  -1.0428217585005106  -2.480879663633267 
C  -2.60218398542082  -2.411889969420291  -2.121542410022959 
H  -2.8231586547736818  -2.5626138747145775  -3.03270050271447 
C  -3.2683208079706407  -3.09759503004543  -1.143064365570095 
H  -3.9596020908062854  -3.707191723557817  -1.3683280760515548 
C  -2.9347449854640226  -2.896087320001541  0.14198826503765638 
H  -3.3668350933519986  -3.405606940434718  0.8171022443470677 
C  -1.9675509241539992  -1.9516175659140573  0.5112421903797603 
H  -1.7755298364628027  -1.8022912010877177  1.4301324877763764 

-Ni 0
lanl2dz
F 1 1.0
3.130 1.0
****
-P 0
6-31+g(d)
****
-N 0
6-31+g(d)
****
-C 0
6-31g(d)
****
-H 0
6-31g(d,p)
****
-Br 0
6-31+g(d)
****

-Ni 0
lanl2dz


