%chk=AVEGEXOL_PN_Ni_gaussain.chk
%nprocshared=32
%mem=64GB
#p opt rwb97xd/gen pseudo=read

This Gaussian input file was generated using the DART python program. This file was generated on the 2023-10-04 at 09:55:46

0 1
Ni  0.0  0.0  0.0 
C  2.557506193149729  0.32301282612470494  0.027599480467512132 
C  3.5199213658648087  2.308472604503092  0.034123571935245234 
H  4.171294520185366  3.0007420385814925  0.04509920272656438 
C  2.1689043204220995  2.4729961354273087  0.005370125263107832 
H  1.7088174884910625  3.304016018546009  -0.008152853145896777 
C  5.090807542203665  0.3555509704444768  -0.015603806976080797 
C  5.702746505281874  0.21546947941303962  -1.262624444871552 
C  6.935922668845375  -0.43226382025584664  -1.309890311190638 
H  7.379833000338476  -0.5443454430229582  -2.141882701439252 
C  7.51743609756344  -0.9133020671900387  -0.14793170727778504 
H  8.33451020620908  -1.3955698813267365  -0.19710361418394406 
C  6.921392332596323  -0.6987869941317779  1.0798627884235903 
H  7.351394870931371  -1.0122579337001767  1.8665401410094633 
C  5.700266237784641  -0.03247801625824476  1.1895172756788066 
C  5.105165812129054  0.7997217680465027  -2.535628285556118 
H  4.127704201589463  0.9452969222419565  -2.38025472151641 
C  5.744200735631042  2.153339325932392  -2.8280556329910773 
H  5.580661348772255  2.7608059400148326  -2.07611824748544 
H  5.352540886567063  2.5299678734768154  -3.642989219122968 
H  6.709121931048282  2.038980320361328  -2.952292561797981 
C  5.259112698014405  -0.12809680254086286  -3.7322585402294 
H  4.931351104180233  -1.021121692446258  -3.4977537138041286 
H  6.205303975525604  -0.183108201050179  -3.9832042363386146 
H  4.741521855256972  0.2223555874082641  -4.486912912689162 
C  5.113176708272951  0.3300947586316605  2.5353122739034357 
H  4.116750398982193  0.32416730021141804  2.448328336363528 
C  5.494913130330984  -0.6535011167465514  3.638505601481762 
H  5.38605836237399  -1.5701548264447442  3.3101398206982355 
H  4.916096683420748  -0.5130292736227449  4.416266954388716 
H  6.4293136452561015  -0.508220051745621  3.8967202406095245 
C  5.539818118706925  1.7368607178178523  2.9453638108812696 
H  5.338187902779358  2.363400085126357  2.22035186116066 
H  6.502048628026381  1.7458853725463719  3.127131526776698 
H  5.052237307553661  2.0035475869529584  3.753321288986451 
C  1.6917903605735019  -2.0656304780767107  1.6685786066359953 
C  3.0347139054512455  -2.7483335671700524  1.9129833012624462 
H  3.1077439109476206  -2.996131811044576  2.8580775021916045 
H  3.760758288881232  -2.133477627773097  1.6784115061163483 
H  3.097610438876397  -3.5539045045122415  1.3577836425875416 
C  1.4297216683655727  -0.9761302305021977  2.70995664611039 
H  1.5228327057281479  -1.3545599454755144  3.6097850661697217 
H  0.5206794722023211  -0.6265875732705486  2.5956365850092777 
H  2.0771214315640245  -0.24966525472277068  2.592943460629479 
C  0.5400022431726246  -3.088991694619461  1.7684935359023237 
H  0.46323789211723376  -3.4048926279206575  2.6938688515156786 
H  0.7257797182357132  -3.848677165610406  1.17793715000471 
H  -0.2997533609474834  -2.6625610374351987  1.4987711787231497 
C  2.089297644850654  -2.2553215086471963  -1.478786852262602 
C  1.847645929000822  -1.3532975804162235  -2.6948612789017075 
H  2.0460355237037615  -1.8512433903674843  -3.5151760471861806 
H  2.4316443321537844  -0.56830359067527  -2.639927489797207 
H  0.9121253489809521  -1.063511901309556  -2.706128689606461 
C  1.1716704808164555  -3.471796586494025  -1.569142111125233 
H  1.257860888036934  -3.881501142265263  -2.4553450679491653 
H  0.2429708369334973  -3.191649199826148  -1.427574518806857 
H  1.424742409880206  -4.123255203921236  -0.882197747657711 
C  3.550575841312509  -2.7103043938258113  -1.4335697455462346 
H  3.8001265295298072  -3.091676329897345  -2.301057434442934 
H  3.660117453993777  -3.3896012827087927  -0.7348593750456236 
H  4.126211329746845  -1.942458426987462  -1.2356956298437378 
N  1.5934383193271082  1.2413920905580156  -4.9571255487077106e-17 
N  3.768736523950247  0.9474726288704609  0.045324618087041815 
P  1.5934383193271082  -1.2413920905580156  5.551115123125783e-17 
Br  -1.5839191898578664  1.5839191898578664  0.0 
C  -1.2937473829822488  -1.2398794889499034  -0.4598005675376139 
C  -1.601562203225019  -1.4938654694550033  -1.7919791134336869 
H  -1.1309417375171225  -1.0428217585005106  -2.480879663633267 
C  -2.60218398542082  -2.411889969420291  -2.121542410022959 
H  -2.8231586547736818  -2.5626138747145775  -3.03270050271447 
C  -3.2683208079706407  -3.09759503004543  -1.143064365570095 
H  -3.9596020908062854  -3.707191723557817  -1.3683280760515548 
C  -2.9347449854640226  -2.896087320001541  0.14198826503765638 
H  -3.3668350933519986  -3.405606940434718  0.8171022443470677 
C  -1.9675509241539992  -1.9516175659140573  0.5112421903797603 
H  -1.7755298364628027  -1.8022912010877177  1.4301324877763764 

-Ni 0
lanl2dz
F 1 1.0
3.130 1.0
****
-P 0
6-31+g(d)
****
-N 0
6-31+g(d)
****
-C 0
6-31g(d)
****
-H 0
6-31g(d,p)
****
-Br 0
6-31+g(d)
****

-Ni 0
lanl2dz


