%chk=UWALUYUV_PN_Pd_gaussain.chk
%nprocshared=32
%mem=64GB
#p opt rwb97xd/gen pseudo=read

This Gaussian input file was generated using the DART python program. This file was generated on the 2023-08-11 at 15:55:49

0 0
Pd  0.0  0.0  0.0 
P  1.3856246786197193  1.603790587950932  1.9515194864893486e-16 
C  4.913563263431605  -0.3063959869148667  -0.36264224932867856 
C  3.4488249327796368  -0.38712956957382727  -0.11572250254854236 
C  3.0231440699244887  0.9360187117184435  0.495914382140575 
C  4.329251214344114  1.7762150129834473  0.3522018822089038 
C  5.219263641435531  1.2592658450379837  1.504875664067152 
C  5.548768902999038  -0.1880089783948946  1.0665870855491935 
C  5.056441187173486  1.1365408761556872  -0.9009180969192312 
C  4.320122216697275  1.2912451261145295  -2.233778978167365 
C  6.464299068570879  1.6433169391318492  -1.066960223446549 
C  5.518117740336261  -1.4331112535936135  -1.1824438547721055 
N  2.8096189097532713  -1.463237954899256  -0.3782575538447842 
N  1.3856246786197193  -1.6037905879509324  -2.220446049250313e-16 
C  0.904886075753115  -2.634779317042155  -0.9785483565980581 
C  1.3885249849643322  -2.1936979967534493  1.367582972716116 
C  1.5417634586540672  2.6736311350214654  -1.4348351979280594 
C  2.296140202961861  3.8458354577827825  -1.3780189735967612 
C  2.4887287821651936  4.608698389634227  -2.5302903983780256 
C  1.9249694458240403  4.200265315565058  -3.7386713336358834 
C  1.1687373656282085  3.030018916751911  -3.7953681320247723 
C  0.9771918138889353  2.266041444128481  -2.644542353319377 
C  0.9192433135489559  2.6620513688477976  1.3965289799822793 
C  1.082030979430583  2.186816150655261  2.697588115158803 
C  0.6352093262689753  2.9474506556616715  3.7793567457169335 
C  0.026909395537541014  4.182328441377041  3.558739002507468 
C  -0.13562706240565703  4.658573616862114  2.257082472286635 
C  0.3121762981673972  3.8980928725784887  1.1759866033493382 
H  2.7575518976763185  0.9035368774993282  1.4174417330565856 
H  4.200751551753035  2.7276404805374943  0.3245802167352946 
H  6.015502693597642  1.787588212288291  1.5999628244783157 
H  4.734651233101732  1.257727283820242  2.332782824634271 
H  6.499096910832918  -0.31827518744337424  1.0352621385152239 
H  5.1568581390386905  -0.830099983128677  1.662682442628908 
H  3.376312148280011  1.1191763335469282  -2.231158791427908 
H  4.743623121709281  0.7402596254894105  -2.8959957791886906 
H  4.4773137691860665  2.2152149829854784  -2.4381699256676024 
H  6.974164380029056  1.5969447877058824  -0.2546195019855289 
H  6.394559937115962  2.558357089027589  -1.3491312134910458 
H  6.901225055813676  1.1301850151869397  -1.7483218383769166 
H  5.054392991692263  -1.5431058759123455  -2.014960317405742 
H  5.37729683786409  -2.2064581227660036  -0.6323600126460265 
H  6.456895115423876  -1.3238491832731465  -1.3494048083298311 
H  -0.0463385622370287  -2.7612028860063864  -0.9416508053121986 
H  1.3454835927147244  -3.472529426123794  -0.8171312794935212 
H  1.151609542641503  -2.307219712972406  -1.847052206139469 
H  0.46865388788668816  -2.315986574497615  1.6142787540227708 
H  1.8118877230380956  -1.6040919988730518  1.997231580492033 
H  1.8368984762824283  -3.04296241458508  1.3725950469696613 
H  2.685591151173425  4.125944490330456  -0.5464564510993033 
H  3.008847746715019  5.4150067628814975  -2.4907269057748875 
H  2.0566804896263826  4.725350115492668  -4.53211600960613 
H  0.7811417533046909  2.7479519602560663  -4.627050080464616 
H  0.45813636570150384  1.4598996449975625  -2.683377020833296 
H  1.5006939808527098  1.335859772526327  2.8485466318509856 
H  0.7467117948943194  2.6187248083092554  4.674595572384372 
H  -0.28002817463296736  4.705503652844032  4.302299683369693 
H  -0.553090729779073  5.5084599675118415  2.1046184194662336 
H  0.20156839201352383  4.22479119836766  0.2799058061983049 
Br  -1.654629867976521  1.654629867976521  0.0 
C  -1.352040782177733  -1.3199206589279684  -0.4819701001757076 
C  -1.6380700204479186  -1.599217458033982  -1.8139382277462257 
H  -1.1579680913617836  -1.159339363685303  -2.503515938957912 
C  -2.63068216563725  -2.52632649780156  -2.142289956238523 
H  -2.8368222554424674  -2.694399528648736  -3.0538898079700485 
C  -3.3101544432602585  -3.1961573187854975  -1.1619874135498987 
H  -3.9960123560788676  -3.811990145619169  -1.3868663427944008 
C  -2.9974710358883443  -2.9701089012107795  0.12423560353005347 
H  -3.438659168087169  -3.468581175155742  0.8017084178296768 
C  -2.0389854250767776  -2.015940632791841  0.4912562833419403 
H  -1.8619130127668426  -1.8492165108145995  1.4101568590026907 

-Pd 0
lanl2dz
F 1 1.0
1.472 1.0
****
-P 0
6-31+g(d)
****
-H 0
6-31g(d,p)
****
-N 0
6-31+g(d)
****
-Br 0
6-31+g(d)
****
-C 0
6-31g(d)
****

-Pd 0
lanl2dz
