%chk=UKEYICED_PN_Pd_gaussain.chk
%nprocshared=32
%mem=64GB
#p opt rwb97xd/gen pseudo=read

This Gaussian input file was generated using the DART python program. This file was generated on the 2023-08-11 at 15:55:49

0 0
Pd  0.0  0.0  0.0 
P  1.5023398700027897  1.4950166938867278  1.7917375841526953e-16 
C  1.7960979874267944  -1.6301113994013021  -1.4288874234835607 
H  0.9599836880917341  -1.7331520447866784  -1.9499388545784424 
H  2.373817289150898  -2.4169461985109946  -1.594337105639298 
C  2.533121769432068  -0.3110780246813998  -1.8221448469782429 
H  3.362619836614553  -0.502370116046948  -2.326958458444424 
H  1.9498515657697966  0.2742129380068721  -2.369199943394695 
C  2.853314705601366  0.3466141027849039  -0.45236629221248953 
H  3.757807755576361  0.7720583353482291  -0.42138988949152956 
C  2.7138565020490852  -0.81945724419638  0.4949336725353479 
H  3.5026178374903516  -1.4163302782225866  0.44767653587586825 
H  2.5962658811162473  -0.511408332847639  1.4283166400709166 
N  1.5023398700027897  -1.4950166938867273  -2.0122792321330962e-16 
C  1.2166430712857803  -2.790181274936354  0.7130614960839026 
H  1.0044207338061912  -2.583020441036351  1.6579680937815704 
H  0.40650560671926184  -3.192736311586399  0.3112677418101042 
C  3.31931092370929  -3.8303116436195928  1.653339416981561 
H  3.3861763375434997  -3.1256573315254577  2.28830839801916 
C  4.2323444678643805  -4.879802988041249  1.6775008579903503 
H  4.925966589143492  -4.884660251528469  2.3275626780226806 
C  4.140448860417217  -5.921654096707207  0.7617968421077868 
H  4.749513425938388  -6.6490824822543155  0.7963323155639734 
C  3.156326708522311  -5.882115969647015  -0.19467804865427082 
H  3.112593279124515  -6.573368963159274  -0.8462917272349599 
C  2.2444248924719807  -4.87717492374199  -0.22964134568765093 
H  1.556505202666753  -4.889416355610167  -0.8855072067630085 
C  2.3050472650958316  -3.8140511362290037  0.6936783066329971 
C  3.115326281170587  2.101913381870297  2.2070886134232772 
H  3.636590180430316  1.3516581007175748  1.9476707643245637 
C  3.4636823754570383  2.8033016735781944  3.327875317407856 
H  4.217088681351908  2.534732184259555  3.841527045376343 
C  2.7328583717505914  3.8879757488784294  3.7079388989018867 
H  2.961253815418116  4.3571617037030554  4.501780917887553 
C  1.6358354252882126  4.31779120018916  2.9276925834670777 
H  1.137340599919251  5.089400955262171  3.171036362833935 
C  1.3058014330522172  3.580007542314118  1.7923907874052298 
H  0.5754573223507954  3.8517385113803275  1.2479059571169053 
C  2.0314710389258948  2.457233277074255  1.4531351427561825 
C  0.32617241806418407  2.7581604686164285  -2.1952351467125086 
H  -0.3895123762496471  2.144597380156696  -2.0807244412403043 
C  0.26349461340280556  3.681571341314414  -3.2430925000702966 
H  -0.4971462821768975  3.7260105708371833  -3.812003954385613 
C  1.3442615962514985  4.534338447670618  -3.4294618406309705 
H  1.3309635371683457  5.161718401911493  -4.142284156949265 
C  2.43579928641526  4.478354133018985  -2.5915908496872735 
H  3.171529357504999  5.063178756433019  -2.729976803970622 
C  2.455895969279168  3.581713884464298  -1.5608971716191182 
H  3.214051985056344  3.5491692278066465  -0.9893240432585048 
C  1.3872776391660473  2.711654787252267  -1.3266599160322816 
Br  -1.654629867976521  1.654629867976521  0.0 
C  -1.352040782177733  -1.3199206589279684  -0.4819701001757076 
C  -1.6380700204479186  -1.599217458033982  -1.8139382277462257 
H  -1.1579680913617836  -1.159339363685303  -2.503515938957912 
C  -2.63068216563725  -2.52632649780156  -2.142289956238523 
H  -2.8368222554424674  -2.694399528648736  -3.0538898079700485 
C  -3.3101544432602585  -3.1961573187854975  -1.1619874135498987 
H  -3.9960123560788676  -3.811990145619169  -1.3868663427944008 
C  -2.9974710358883443  -2.9701089012107795  0.12423560353005347 
H  -3.438659168087169  -3.468581175155742  0.8017084178296768 
C  -2.0389854250767776  -2.015940632791841  0.4912562833419403 
H  -1.8619130127668426  -1.8492165108145995  1.4101568590026907 

-Pd 0
lanl2dz
F 1 1.0
1.472 1.0
****
-P 0
6-31+g(d)
****
-H 0
6-31g(d,p)
****
-N 0
6-31+g(d)
****
-Br 0
6-31+g(d)
****
-C 0
6-31g(d)
****

-Pd 0
lanl2dz
