%chk=GAZEHOTO_PN_Pd_gaussain.chk
%nprocshared=32
%mem=64GB
#p opt rwb97xd/gen pseudo=read

This Gaussian input file was generated using the DART python program. This file was generated on the 2023-10-04 at 16:41:16

0 1
Pd  0.0  0.0  0.0 
C  1.3486888418153813  -2.7323717085757018  0.12353949141234764 
H  0.527011329159025  -3.080810304905272  -0.2011713796449056 
C  2.2452554257675086  -3.5928376651443745  0.6955863060410112 
H  2.065878017148874  -4.525157359979606  0.7196797055438493 
C  3.428120536874201  -3.0847414658772685  1.2439975761813606 
H  4.045907221273119  -3.6578290193568144  1.6813879723107565 
C  3.6740343595265337  -1.7324357826847323  1.135338195391269 
H  4.470967995738304  -1.362708955291351  1.4972063241066018 
C  2.7522078836089974  -0.9138896719817048  0.49482566393660665 
C  1.063103305822053  2.200077354121198  1.5496832588957998 
C  1.559299996149044  1.7173395218853265  2.7714123900197363 
H  2.169611217681496  0.9891580502051859  2.8012445400147716 
C  1.1203397150760388  2.351749910855989  3.9554878268084606 
H  1.4638023364492243  2.0668313814933037  4.794383916527132 
C  0.19368210422281384  3.387093221161875  3.9139344628932946 
H  -0.0978255540721662  3.7992074008885894  4.718776384032828 
C  -0.30176555794866844  3.813290039713578  2.698482491030455 
H  -0.9369806228713997  4.519880847881061  2.6689364065446526 
C  0.12276864499935702  3.2131307300137824  1.509858225962634 
H  -0.2318633087220081  3.501002284821272  0.6766897584048964 
C  2.2136018828553254  2.6963860262396766  -1.0944316527947966 
C  2.4580150569784522  2.3623241631096215  -2.4184985400468095 
H  2.233069566710646  1.4973669765501036  -2.737540248648086 
C  3.0289458442299244  3.286359406808343  -3.277585214702561 
H  3.1999576141268586  3.0553731444898156  -4.183448808836252 
C  3.346498094276578  4.534976924335289  -2.811215883147443 
H  3.7457835143460745  5.165761144344722  -3.4003417365158035 
C  3.09791808935572  4.896074709818602  -1.50402135268434 
H  3.305229581994504  5.77352833000817  -1.2074500974418518 
C  2.5413495221960964  3.9717384729814844  -0.6182420566293217 
H  2.3884612164448473  4.203053805627422  0.29079829057614326 
C  6.764738307530508  1.8734408510458027  -0.4345254605065776 
H  7.632198449869141  2.180373740047693  -0.6714073574570927 
C  6.058291238570587  2.4782259485377347  0.5674980594816504 
H  6.426831955947241  3.2184602768026886  1.0349805285578852 
C  4.790092362135278  1.9968994346421964  0.8962164447742978 
H  4.2825164909381375  2.3791545306602426  1.6035060082111756 
C  4.303306685049922  0.9385339779566664  0.14580540762238003 
C  6.194108609166466  0.8121443981645262  -1.0892260000256757 
H  6.706273515746094  0.38177474919952115  -1.7632382356105105 
N  2.9505804296307945  0.46767868153931785  0.36763892117605396 
N  1.5820488646056412  -1.410397599969597  1.409611734557574e-15 
N  4.953729805119481  0.3391346383532633  -0.8408704492637613 
P  1.5820488646056419  1.410397599969597  -1.727238906327876e-16 
Br  -1.654629867976521  1.654629867976521  0.0 
C  -1.352040782177733  -1.3199206589279684  -0.4819701001757076 
C  -1.6380700204479186  -1.599217458033982  -1.8139382277462257 
H  -1.1579680913617836  -1.159339363685303  -2.503515938957912 
C  -2.63068216563725  -2.52632649780156  -2.142289956238523 
H  -2.8368222554424674  -2.694399528648736  -3.0538898079700485 
C  -3.3101544432602585  -3.1961573187854975  -1.1619874135498987 
H  -3.9960123560788676  -3.811990145619169  -1.3868663427944008 
C  -2.9974710358883443  -2.9701089012107795  0.12423560353005347 
H  -3.438659168087169  -3.468581175155742  0.8017084178296768 
C  -2.0389854250767776  -2.015940632791841  0.4912562833419403 
H  -1.8619130127668426  -1.8492165108145995  1.4101568590026907 

-Pd 0
lanl2dz
F 1 1.0
1.472 1.0
****
-H 0
6-31g(d,p)
****
-P 0
6-31+g(d)
****
-N 0
6-31+g(d)
****
-C 0
6-31g(d)
****
-Br 0
6-31+g(d)
****

-Pd 0
lanl2dz


