%chk=INURUFIR_PN_Pd_gaussain.chk
%nprocshared=32
%mem=64GB
#p opt rwb97xd/gen pseudo=read

This Gaussian input file was generated using the DART python program. This file was generated on the 2023-10-04 at 16:41:16

0 1
Pd  0.0  0.0  0.0 
P  1.533670255465627  -1.4628586902021679  3.2724396804235683e-15 
N  1.5336702554656263  1.4628586902021679  -6.2323773110616005e-16 
N  2.8759405763109025  -0.4451113746400297  -0.20492773712709633 
H  3.6743657906592406  -0.8041556647808725  -0.29802969634427523 
C  2.750803999972615  0.9394775016239396  -0.2298235397535434 
C  3.884299536240267  1.7462404158442448  -0.4693905856929377 
H  4.734185444269841  1.353250666492207  -0.6324481222773796 
C  3.733040549069931  3.114331328113713  -0.46216323722305575 
H  4.483078014963784  3.67853730407571  -0.6114214244166788 
C  2.4682495492186667  3.6710997094038023  -0.23309559155725132 
H  2.3402635509482996  4.612051822016792  -0.23407335220828093 
C  1.411554152452732  2.810360901593194  -0.0053654152904892465 
H  0.553641685078115  3.1850773172466056  0.15600997367286695 
C  2.114187698905934  -2.703062988232671  1.2282568163898968 
H  2.9638191875057243  -3.112273439665455  0.8955342742952923 
C  2.396513197317631  -1.994604941709548  2.5541792912213794 
H  1.584868844178571  -1.5395286452369208  2.8600980686873183 
H  3.1119242100437026  -1.3375236655494014  2.427023758938963 
H  2.674056463349764  -2.653486237938369  3.224435744349628 
C  1.068294305475782  -3.813285185959473  1.4070200152141223 
H  1.3761744040610915  -4.4449635026616106  2.0901234327897313 
H  0.9446601908659202  -4.28559592904602  0.5570104166390907 
H  0.2168560118903302  -3.417482666633439  1.687862476233566 
C  1.375904438253138  -2.3564882928122035  -1.6097465764083323 
H  0.5223220888743503  -2.87628413850316  -1.5807108805938237 
C  1.2448486846222364  -1.3210373465621152  -2.73583317048094 
H  2.0846771585649178  -0.8232396543603061  -2.8214834594102878 
H  0.5172141189456965  -0.6995979648304692  -2.525469452920838 
H  1.0487987076802878  -1.7796236300446917  -3.579833435375886 
C  2.506601680694595  -3.348602151601551  -1.9017369480534148 
H  2.3744224351324057  -3.7432271887746356  -2.7896022177192448 
H  2.5025788024248605  -4.057293053835399  -1.2254257833212252 
H  3.3665432373385853  -2.8792505049943764  -1.8775542893109343 
Br  -1.654629867976521  1.654629867976521  0.0 
C  -1.352040782177733  -1.3199206589279684  -0.4819701001757076 
C  -1.6380700204479186  -1.599217458033982  -1.8139382277462257 
H  -1.1579680913617836  -1.159339363685303  -2.503515938957912 
C  -2.63068216563725  -2.52632649780156  -2.142289956238523 
H  -2.8368222554424674  -2.694399528648736  -3.0538898079700485 
C  -3.3101544432602585  -3.1961573187854975  -1.1619874135498987 
H  -3.9960123560788676  -3.811990145619169  -1.3868663427944008 
C  -2.9974710358883443  -2.9701089012107795  0.12423560353005347 
H  -3.438659168087169  -3.468581175155742  0.8017084178296768 
C  -2.0389854250767776  -2.015940632791841  0.4912562833419403 
H  -1.8619130127668426  -1.8492165108145995  1.4101568590026907 

-Pd 0
lanl2dz
F 1 1.0
1.472 1.0
****
-H 0
6-31g(d,p)
****
-P 0
6-31+g(d)
****
-N 0
6-31+g(d)
****
-C 0
6-31g(d)
****
-Br 0
6-31+g(d)
****

-Pd 0
lanl2dz


