%chk=EQUQUVIB_PN_Ni_gaussain.chk
%nprocshared=32
%mem=64GB
#p opt rwb97xd/gen pseudo=read

This Gaussian input file was generated using the DART python program. This file was generated on the 2023-08-11 at 15:55:49

0 0
Ni  0.0  0.0  0.0 
C  2.68963616268557  1.1629357981341342  -1.1827460027435077 
H  2.2860217758820554  1.1955849457921184  -2.074983953024965 
C  3.2426504343350024  -0.27080611424816514  -1.030319777866041 
H  3.939753565053902  -0.38734099974709246  -1.695171051162317 
H  3.6684281727209216  -0.32801328956551545  -0.15990335649796514 
C  2.3060335516130053  -1.432119304094731  -1.1505880616674236 
H  2.858574924410037  -2.239443044761089  -1.1139725034434813 
C  3.803956824419549  2.21430649695063  -1.1958683692552845 
H  4.247011642120995  2.2012130970126953  -2.0479829163612657 
H  4.437604675686315  2.017129165281272  -0.502400164893475 
H  3.42535572773023  3.0838986744267043  -1.0458641211218884 
C  0.8480304682391028  3.205583686219669  -0.5033333803393286 
C  1.007597782111037  4.317513337173349  0.2704926619167717 
H  1.3451459882696022  4.195753397409321  1.1274057412823593 
C  0.6930078553841076  5.648201585049656  -0.1406117104338898 
H  0.7924223429370784  6.385633322052729  0.41630294454047845 
C  0.2487892564861791  5.734065238932966  -1.3920668711707886 
H  -0.01624788110609643  6.5700018074516064  -1.7112459104421283 
C  0.16666822156922745  4.678762090248827  -2.2029827114412384 
H  -0.0240332669995722  4.810379333059157  -3.1024299548372354 
C  0.35396238843384487  3.4439077205260706  -1.7356082998234161 
H  0.135103510073743  2.725328089034296  -2.2796915237589643 
C  1.8439418706242285  1.6762320575043097  1.7673532590596632 
C  3.1460568775438196  1.5999941155617867  2.204111206855952 
H  3.840809500297081  1.4783819863251557  1.5971881366073306 
C  3.411847794843847  1.7156797337915797  3.564080852111185 
H  4.285948704649997  1.6832986755152977  3.8770250428880155 
C  2.4108432064533813  1.852669460321915  4.393430433919976 
H  2.613450187772246  1.9260214328216712  5.298654356080274 
C  1.129240004873542  1.9025937313058972  4.048849905063408 
H  0.45789483338012893  1.9918619030929519  4.683638180174317 
C  0.8324282952746264  1.7993453843563383  2.653515662705261 
H  -0.04858459717059449  1.8194853911140314  2.3574824492424677 
C  1.6112989874491253  -1.4542132193279727  -2.483132336453715 
H  1.0356368764162498  -0.689381842711921  -2.5565631151828523 
H  1.090653798043116  -2.2560532226496557  -2.5574494665212284 
H  2.265937089977335  -1.4301468598624636  -3.1849684890280896 
C  1.9018696782483062  -1.8743216767128328  1.2887484434334842 
H  2.5196099323537235  -1.1459059128686049  1.5059165429347758 
C  2.7379833807165026  -3.1339031334849103  1.245245451572521 
C  4.0707820825641905  -3.1308613119081166  1.4969480293794994 
H  4.502963247517931  -2.333355320917897  1.7135730394636053 
C  4.803707562059543  -4.3449538753098045  1.4272074457913089 
H  5.727279783172582  -4.336496873609064  1.542227276736184 
C  4.163592321037315  -5.545935600635888  1.1871749195707046 
H  4.6167064546764305  -6.353453134576674  1.1697822695518398 
C  2.822168888102029  -5.467309431805074  0.9837834518363603 
H  2.384016936149282  -6.2688469026546825  0.8120275499755767 
C  2.073055971492873  -4.34422354825572  0.9997279286700451 
H  1.1547257766532826  -4.37042247079659  0.8567956380440301 
C  0.8276380546292006  -1.8376629852913118  2.328483183239745 
H  1.2105319914750334  -2.0252660758621635  3.1892801009473914 
H  0.16086354043364626  -2.4951136616277885  2.1249714995358224 
H  0.4249378974892688  -0.9653241252528205  2.3410305617001272 
N  1.3127993477679676  -1.5351409943389562  1.3982554666662992e-16 
H  0.826568448329195  -2.3565010190205684  -0.22480249617384043 
P  1.3127993477679674  1.5351409943389562  3.404405442932253e-17 
Br  -1.5839191898578664  1.5839191898578664  0.0 
C  -1.2937473829822488  -1.2398794889499034  -0.4598005675376139 
C  -1.601562203225019  -1.4938654694550033  -1.7919791134336869 
H  -1.1309417375171225  -1.0428217585005106  -2.480879663633267 
C  -2.60218398542082  -2.411889969420291  -2.121542410022959 
H  -2.8231586547736818  -2.5626138747145775  -3.03270050271447 
C  -3.2683208079706407  -3.09759503004543  -1.143064365570095 
H  -3.9596020908062854  -3.707191723557817  -1.3683280760515548 
C  -2.9347449854640226  -2.896087320001541  0.14198826503765638 
H  -3.3668350933519986  -3.405606940434718  0.8171022443470677 
C  -1.9675509241539992  -1.9516175659140573  0.5112421903797603 
H  -1.7755298364628027  -1.8022912010877177  1.4301324877763764 

-Ni 0
lanl2dz
F 1 1.0
3.130 1.0
****
-P 0
6-31+g(d)
****
-H 0
6-31g(d,p)
****
-N 0
6-31+g(d)
****
-Br 0
6-31+g(d)
****
-C 0
6-31g(d)
****

-Ni 0
lanl2dz
