%chk=UNALUZEK_PN_Pd_gaussain.chk
%nprocshared=32
%mem=64GB
#p opt rwb97xd/gen pseudo=read

This Gaussian input file was generated using the DART python program. This file was generated on the 2023-10-04 at 16:41:16

0 1
Pd  0.0  0.0  0.0 
P  1.523495315056794  1.4734524169446392  0.0 
N  1.523495315056794  -1.4734524169446392  0.0 
C  2.1248726587887345  2.741669112312963  1.129923640798354 
C  2.041570211176078  2.51678898982683  2.481036738482036 
H  1.6674173227395832  1.7362693057336243  2.817976404917548 
C  2.547106943684681  3.5210512469470046  3.34014588230978 
H  2.4680312545928302  3.4165047490564056  4.26087711083062 
C  3.130493630004853  4.604332978100437  2.8575377543492073 
H  3.4938036604819365  5.227417927734406  3.446341819632698 
C  3.2076686431453716  4.823948831506145  1.5546748589224975 
H  3.596679970587681  5.606734411641602  1.2379538102794112 
C  2.7080280199577818  3.8807520549982173  0.6543781809069645 
H  2.7727339831627136  4.026486445556461  -0.26080250930364385 
C  0.9439145932002497  2.3164947647768135  -1.4921154267059626 
C  0.09782311449008385  3.3602067349189615  -1.395229189107151 
H  -0.12965247166285065  3.680866940546594  -0.5513921075379397 
C  -0.4429153462658011  3.9713831730881455  -2.512950146451266 
H  -1.0275103853649377  4.688090735446895  -2.419179893607141 
C  -0.12080339097146142  3.5275822756312922  -3.7195224450198143 
H  -0.4811966302690984  3.931275586768837  -4.4761407395457935 
C  0.7450959827187762  2.4721723980428076  -3.8503718429226397 
H  0.9790031115224416  2.161637466790127  -4.696745472926993 
C  1.2682560733005426  1.8738131705163412  -2.726019142718438 
H  1.8517891934478345  1.1540914490650236  -2.8173486634788665 
C  2.9426329118178534  0.48030306364931596  -0.48284736046536675 
C  4.147936254244325  1.057904206524889  -0.901317625220777 
H  4.2135212316349175  1.9774930642429251  -1.0242712892634354 
C  5.23936376171932  0.24032525986436593  -1.1274077663247049 
H  6.043496214085923  0.6093331244871352  -1.4138292475329413 
C  5.142157251749036  -1.079348665563154  -0.93407749201123 
H  5.895371417244521  -1.609810247499238  -1.0621018685451005 
C  3.955149883952153  -1.6764098396350229  -0.551926980809425 
H  3.907949767996267  -2.5987114283201627  -0.44672347058937456 
C  2.8306045156396227  -0.8835299057023519  -0.32706812513810873 
C  0.8157773629496854  -1.8920390797422963  -1.2748043598895005 
H  0.8626216363808642  -1.1697375464448112  -1.9204604130964844 
H  -0.1195866205050291  -2.062267410237087  -1.0830405886690138 
C  1.445801632637936  -3.1485001664456873  -1.8740380515357016 
H  0.8688833365747287  -3.4781950038312996  -2.5807248590175047 
H  2.2951560021767334  -2.9078490087141913  -2.277815930112351 
C  1.6539091122255334  -4.1352416881127745  -0.9922873008369404 
H  2.60362044703645  -4.333401589065294  -0.9899433327985727 
H  1.1981830527006396  -4.925290197051992  -1.3221211411154055 
C  1.275128322492177  -3.9472728356307143  0.2813770834596452 
H  1.6627555704353902  -4.657664612088962  0.8146330263168036 
H  0.3114937554725694  -4.050884043732411  0.3231627125761518 
C  1.6188412092480697  -2.658335769757786  0.925932303512063 
H  2.5240242063508855  -2.7121749600076472  1.2707104544283037 
H  1.0245579650684857  -2.515921313351295  1.6786036848557806 
Br  -1.654629867976521  1.654629867976521  0.0 
C  -1.352040782177733  -1.3199206589279684  -0.4819701001757076 
C  -1.6380700204479186  -1.599217458033982  -1.8139382277462257 
H  -1.1579680913617836  -1.159339363685303  -2.503515938957912 
C  -2.63068216563725  -2.52632649780156  -2.142289956238523 
H  -2.8368222554424674  -2.694399528648736  -3.0538898079700485 
C  -3.3101544432602585  -3.1961573187854975  -1.1619874135498987 
H  -3.9960123560788676  -3.811990145619169  -1.3868663427944008 
C  -2.9974710358883443  -2.9701089012107795  0.12423560353005347 
H  -3.438659168087169  -3.468581175155742  0.8017084178296768 
C  -2.0389854250767776  -2.015940632791841  0.4912562833419403 
H  -1.8619130127668426  -1.8492165108145995  1.4101568590026907 

-Pd 0
lanl2dz
F 1 1.0
1.472 1.0
****
-H 0
6-31g(d,p)
****
-P 0
6-31+g(d)
****
-N 0
6-31+g(d)
****
-C 0
6-31g(d)
****
-Br 0
6-31+g(d)
****

-Pd 0
lanl2dz


