%chk=AXAYEXIG_PN_Ni_gaussain.chk
%nprocshared=32
%mem=64GB
#p opt rwb97xd/gen pseudo=read

This Gaussian input file was generated using the DART python program. This file was generated on the 2023-10-04 at 16:41:16

0 1
Ni  0.0  0.0  0.0 
P  1.3051272447543212  1.5416688603588005  -2.7222157418386713e-15 
N  1.305127244754319  -1.5416688603587996  -3.3306690738754696e-16 
C  2.512097017495038  -1.4041092323134856  0.4122907304588539 
H  2.864103759745727  -2.1251578657672923  0.8808864321084354 
C  3.415366541106888  -0.2494801314923656  0.2396920130503234 
C  3.0595404689053245  1.039249573106846  0.07726770814109118 
C  4.087082883598018  2.14541072343527  0.021193779157382964 
H  3.76240068220657  2.927188653177912  0.4936591711882986 
H  4.2590886001688535  2.3933238809411224  -0.9009709077627347 
C  5.441843745683931  1.6045225038950963  0.71191588718848 
H  6.157393396877239  2.1808392103201175  0.40334142199000633 
H  5.348499888761008  1.7677785969976207  1.6637674262635986 
C  5.798362073454831  0.6112022557040568  0.6122090343791825 
H  6.295363247192011  0.41854279579197495  1.4219284029324388 
H  6.445584300818384  0.6282655276403373  -0.10993478312352767 
C  4.869134358376939  -0.6732003069442916  0.3483683047836871 
H  5.142680929920961  -1.1128074187090506  -0.4719077953694176 
H  4.969732725812047  -1.3059659027759178  1.0773125888008073 
C  0.6563797083541054  -2.8007880265513556  0.3124420735772077 
C  0.6589995645929307  -3.799823097961922  -0.6641552756128225 
C  -0.05651683094344495  -4.962910581341905  -0.3866934156690415 
H  -0.07987961330287141  -5.6440071948881  -1.0177086479862498 
C  -0.7249006226594898  -5.120788191286853  0.7966038366092749 
H  -1.2005284506522302  -5.903420205219594  0.9583214918189272 
C  -0.6994095040740469  -4.115810627791528  1.7613167471398143 
H  -1.1473543957612293  -4.23955895657051  2.5669264387000545 
C  -0.009347501136309333  -2.92915837253729  1.5306257694193453 
C  0.0026575133419006747  -1.8188571080999811  2.550381054679646 
H  0.5245371838492064  -1.083967850016165  2.2177536386956214 
H  0.3871843929771337  -2.1411520170627014  3.368688992130296 
H  -0.8969612783958405  -1.5253235409144303  2.7130550983610577 
C  1.396366443731163  -3.6216949395348994  -1.9568720368275194 
H  1.8245048822375487  -2.764150311116892  -1.965303984689101 
H  0.7763658405005585  -3.678861567379667  -2.6887461985893446 
H  2.059611167793121  -4.310017582798921  -2.0442035590518524 
C  1.2786494724598398  3.0897804434419136  -0.9335826015400245 
C  1.0182755306880917  3.0262002560745787  -2.2999407903838702 
H  0.8600014352806207  2.2050362191325803  -2.7048214952292375 
C  0.9957268990449462  4.193173625817086  -3.0597582510432475 
H  0.8291763435800994  4.15170740590192  -3.9747649641772576 
C  1.2212013313682453  5.416599987663064  -2.4543659587989395 
H  1.1972654199372321  6.194931924471295  -2.961912053541407 
C  1.4793383723795028  5.488401891980076  -1.1018875986783536 
H  1.6321452929381701  6.3125673646512235  -0.7021246455597251 
C  1.5114143137775917  4.332841884375468  -0.33530955124398587 
H  1.687200552696059  4.384312444649698  0.5755770496191351 
C  0.8587560746947458  1.9649229045821095  1.7018115590711917 
C  -0.43638356000440437  2.4226621591946476  1.943091295929039 
H  -1.004998884529477  2.6017477281512296  1.229077219242332 
C  -0.8812360998240176  2.6132716717534024  3.240697974217249 
H  -1.7458896275727793  2.9173438898890787  3.398449909576824 
C  -0.02548614777779923  2.344004888416163  4.308989038938926 
H  -0.32132608165171184  2.4620211496758317  5.182496998607176 
C  1.2579481685385865  1.9004475055156285  4.072528019369208 
H  1.8278846134780975  1.7292418518329231  4.786395207911165 
C  1.7007690759668812  1.7106833009432443  2.7748323229105156 
H  2.5678758006879363  1.4099633493888601  2.621345845718953 
Br  -1.5839191898578664  1.5839191898578664  0.0 
C  -1.2937473829822488  -1.2398794889499034  -0.4598005675376139 
C  -1.601562203225019  -1.4938654694550033  -1.7919791134336869 
H  -1.1309417375171225  -1.0428217585005106  -2.480879663633267 
C  -2.60218398542082  -2.411889969420291  -2.121542410022959 
H  -2.8231586547736818  -2.5626138747145775  -3.03270050271447 
C  -3.2683208079706407  -3.09759503004543  -1.143064365570095 
H  -3.9596020908062854  -3.707191723557817  -1.3683280760515548 
C  -2.9347449854640226  -2.896087320001541  0.14198826503765638 
H  -3.3668350933519986  -3.405606940434718  0.8171022443470677 
C  -1.9675509241539992  -1.9516175659140573  0.5112421903797603 
H  -1.7755298364628027  -1.8022912010877177  1.4301324877763764 

-Ni 0
lanl2dz
F 1 1.0
3.130 1.0
****
-H 0
6-31g(d,p)
****
-P 0
6-31+g(d)
****
-N 0
6-31+g(d)
****
-C 0
6-31g(d)
****
-Br 0
6-31+g(d)
****

-Ni 0
lanl2dz


