%chk=UKADAFEV_PN_Pd_gaussain.chk
%nprocshared=32
%mem=64GB
#p opt rwb97xd/gen pseudo=read

This Gaussian input file was generated using the DART python program. This file was generated on the 2023-10-04 at 16:41:16

0 1
Pd  0.0  0.0  0.0 
P  1.6255219454070744  -1.3600655884919661  1.6655999695771477e-16 
N  1.6255219454070744  1.360065588491967  -1.6655999695771487e-16 
C  0.9512948676447344  -1.727926355085395  -1.6407756257372392 
C  0.055073000564613395  -2.791569812607184  -1.7608710054923211 
C  -0.5810812964632457  -3.03571711168574  -2.9682958133895667 
C  -0.3206556480364777  -2.2331773524008525  -4.06738501650661 
C  0.5499958026178791  -1.1676002271043255  -3.9394318550830802 
C  1.1791993927784117  -0.9006923455495072  -2.745926226737306 
C  2.043264467990927  -2.9530598884229624  0.734685977280534 
C  2.554144955113273  -3.964583719803337  -0.07581022038310643 
C  3.0414023113344273  -5.129124579745369  0.4995950058130494 
C  3.0185063113327324  -5.28063972117946  1.8711665442681844 
C  2.478839898010741  -4.300065154567022  2.6762995839858603 
C  1.9965368362847071  -3.1280476956388523  2.1154437713055843 
C  3.250410753093683  -0.45255220057619483  -0.13875620133341066 
C  4.228689833863275  -1.0857119851383703  -1.1273005743090676 
C  3.891202061896793  -0.459625377841614  1.279870359367408 
C  2.8429451517758118  0.9636181049571066  -0.4545244541207669 
C  3.6901658215555444  1.823625232478743  -1.1380955896362777 
C  3.278105177352075  3.1180434428181614  -1.3875129351443976 
C  2.041531347820733  3.5244697429004264  -0.978549065444779 
C  1.2394053315105578  2.6331726905692197  -0.2929998414906665 
H  -0.1312422938027713  -3.3522784000846206  -1.0082534458952506 
H  -1.2004072551591807  -3.755984687962107  -3.049120719515963 
H  -0.7359148978078496  -2.4214430670594465  -4.905794490548658 
H  0.6990931673040857  -0.6140057818284647  -4.708060494936774 
H  1.7787648288335332  -0.12493263665938491  -2.6628574483018452 
H  2.5472031265514468  -3.8586512734426073  -1.0438116138863758 
H  3.3847405460964803  -5.851299600796423  -0.06189193572735314 
H  3.403518402788338  -6.087756303856297  2.251380065070703 
H  2.4369689005782336  -4.42487462804853  3.633475735435163 
H  1.6173103198180323  -2.4432032088132076  2.696419233845178 
H  3.839522541078767  -1.0968438600480122  -2.0017565821149423 
H  5.034956741514849  -0.5941043702869705  -1.1549846247010176 
H  4.418951244450714  -1.9892611377660614  -0.8725381665110155 
H  3.291665251252729  -0.06418358845236936  1.9106553892209968 
H  4.085251585375859  -1.3490525718207556  1.557155211185793 
H  4.702054018323521  0.04625483912857102  1.2741152888078242 
H  4.562826072301065  1.5065858016979776  -1.4085847873854984 
H  3.8602757834173618  3.7328994152622728  -1.863874141146082 
H  1.7303736208349885  4.412493574412236  -1.1751536269487133 
H  0.3733099328672629  2.921020007134358  0.02533413846620289 
Br  -1.654629867976521  1.654629867976521  0.0 
C  -1.352040782177733  -1.3199206589279684  -0.4819701001757076 
C  -1.6380700204479186  -1.599217458033982  -1.8139382277462257 
H  -1.1579680913617836  -1.159339363685303  -2.503515938957912 
C  -2.63068216563725  -2.52632649780156  -2.142289956238523 
H  -2.8368222554424674  -2.694399528648736  -3.0538898079700485 
C  -3.3101544432602585  -3.1961573187854975  -1.1619874135498987 
H  -3.9960123560788676  -3.811990145619169  -1.3868663427944008 
C  -2.9974710358883443  -2.9701089012107795  0.12423560353005347 
H  -3.438659168087169  -3.468581175155742  0.8017084178296768 
C  -2.0389854250767776  -2.015940632791841  0.4912562833419403 
H  -1.8619130127668426  -1.8492165108145995  1.4101568590026907 

-Pd 0
lanl2dz
F 1 1.0
1.472 1.0
****
-H 0
6-31g(d,p)
****
-P 0
6-31+g(d)
****
-N 0
6-31+g(d)
****
-C 0
6-31g(d)
****
-Br 0
6-31+g(d)
****

-Pd 0
lanl2dz


