%chk=ACUWIYIS_PN_Pd_gaussain.chk
%nprocshared=32
%mem=64GB
#p opt rwb97xd/gen pseudo=read

This Gaussian input file was generated using the DART python program. This file was generated on the 2023-08-11 at 15:55:49

0 0
Pd  0.0  0.0  0.0 
N  1.5776148690348983  1.4153555472035992  1.3441513490304536e-16 
P  1.5776148690348986  -1.4153555472035992  -2.220446049250313e-16 
C  1.8627740209557748  -0.4287482683760654  1.4645556136386 
C  1.6153866333369542  -1.1426354623015167  2.579547454324607 
C  1.554284219688053  -0.5839987709329263  3.977456278999198 
H  2.3935729441541653  -0.13753776242627702  4.1695946012238085 
H  0.8507359500730884  0.08193504468126145  4.014409432360165 
C  1.304489869694579  -1.5986226496023506  5.026699028578713 
H  2.163167344682628  -1.9677030520723133  5.282094076417856 
H  0.9555284978946459  -1.1315206261523385  5.801414725257447 
C  0.46538999161369343  -2.6514669705534883  4.775041442868304 
H  -0.42968877862032717  -2.324669593799743  4.597241893872167 
H  0.43105207027726045  -3.235883113645069  5.5472155157639715 
C  1.0274477532146733  -3.4934545738483167  3.4599109974287607 
H  1.85254172841886  -3.9466862485800958  3.6936013932553893 
H  0.37771482621857655  -4.166815572703332  3.2045417964705303 
C  1.2792787642318664  -2.5658502997180785  2.292753997490279 
C  1.2129680468588933  -2.8867769572617883  0.9896279447849748 
C  1.0268819459384546  -4.207492881746807  0.3410843920023361 
C  1.153114749873459  -5.393711544836192  1.0850198546260463 
H  1.3306204247767348  -5.362996184949491  1.9969207494847898 
C  1.0105949881162188  -6.618121042805759  0.43211094919544607 
H  1.0681499602108013  -7.39901524086341  0.9354699926496167 
C  0.7876383742983697  -6.725385634589749  -0.9271430357920338 
H  0.7199696543045176  -7.553854949114097  -1.3466549774885117 
C  0.6744112754588831  -5.557539531703611  -1.6222748032016792 
H  0.5613163175888227  -5.5860881392106325  -2.5436843633397057 
C  0.7241958968673263  -4.318993522212589  -0.9752906582297248 
H  0.5442787390738091  -3.549235049048336  -1.4642990521488317 
C  2.0321720965603505  1.002643853555944  1.207081391137686 
C  2.749838303860276  1.867884765932739  2.0457856229435807 
H  3.029456627449684  1.5878296654435746  2.8893831654975317 
C  3.0274553048502097  3.1368498069420707  1.60305504408377 
H  3.490949383349439  3.719624468495962  2.159180868917404 
C  2.6324871474644684  3.580649498292447  0.32728312143904287 
C  3.0835052663629376  4.845255125858145  -0.2690931466622819 
C  3.6299936895667946  5.94671174082681  0.4807318520180205 
C  3.4264331703809505  6.146901043479284  1.873466926657965 
H  2.9124157129279125  5.537451678120689  2.3530159486541713 
C  3.976643793201659  7.219449272084653  2.5202966321065796 
H  3.838339378031405  7.3242319857236495  3.4357786044396823 
C  4.750610659135361  8.175974417073716  1.8206215593475048 
H  5.143931955607251  8.882675826466023  2.27897544632199 
C  4.9203047085541  8.060542170863359  0.4727238977549404 
H  5.430890731135139  8.684639141935559  0.009820382707392161 
C  4.3121855010069465  6.975349900246531  -0.22129959983411607 
C  4.396376575117726  6.943282964776026  -1.647277195972861 
H  4.911603041679171  7.5708307719364765  -2.1009363608562843 
C  3.7327311020493035  6.007359621968476  -2.3223146189826744 
H  3.695978744703046  6.0632088325475255  -3.2503170273347415 
C  3.082902721069109  4.932264213605258  -1.6741403151191314 
C  2.4155657500826795  3.9374611566759454  -2.458797727674926 
H  2.4151923144766934  4.014152561330034  -3.3845314361451555 
C  1.7753962990229768  2.8698049568005186  -1.8706626047673878 
H  1.2274496725613429  2.31176435946757  -2.3756399867139333 
C  1.9570172140878617  2.6386946498205677  -0.5150743932449292 
C  3.068302462152479  -1.7430845838519962  -0.9719377697481029 
C  3.270934421523742  -1.0097918383997455  -2.1386552927623272 
H  2.665657858097789  -0.3532621615733671  -2.395000441367727 
C  4.4061486032915935  -1.2830824548559632  -2.9227836052662166 
H  4.557659582993723  -0.8064987714608476  -3.70548549982841 
C  5.289444953393674  -2.252402639251048  -2.5300077174871305 
H  6.03822448235352  -2.427172201915867  -3.0495302646172977 
C  5.082212541698395  -2.9708513230528464  -1.3782297283388467 
H  5.693566504244216  -3.6279694173985155  -1.130790700368195 
C  3.977137527172344  -2.7275060055596625  -0.5795577000791696 
H  3.844180980314867  -3.2127740086116203  0.20306926844523376 
Br  -1.654629867976521  1.654629867976521  0.0 
C  -1.352040782177733  -1.3199206589279684  -0.4819701001757076 
C  -1.6380700204479186  -1.599217458033982  -1.8139382277462257 
H  -1.1579680913617836  -1.159339363685303  -2.503515938957912 
C  -2.63068216563725  -2.52632649780156  -2.142289956238523 
H  -2.8368222554424674  -2.694399528648736  -3.0538898079700485 
C  -3.3101544432602585  -3.1961573187854975  -1.1619874135498987 
H  -3.9960123560788676  -3.811990145619169  -1.3868663427944008 
C  -2.9974710358883443  -2.9701089012107795  0.12423560353005347 
H  -3.438659168087169  -3.468581175155742  0.8017084178296768 
C  -2.0389854250767776  -2.015940632791841  0.4912562833419403 
H  -1.8619130127668426  -1.8492165108145995  1.4101568590026907 

-Pd 0
lanl2dz
F 1 1.0
1.472 1.0
****
-P 0
6-31+g(d)
****
-H 0
6-31g(d,p)
****
-N 0
6-31+g(d)
****
-Br 0
6-31+g(d)
****
-C 0
6-31g(d)
****

-Pd 0
lanl2dz
