%chk=SOSOWIFE_PN_Ni_gaussain.chk
%nprocshared=32
%mem=64GB
#p opt rwb97xd/gen pseudo=read

This Gaussian input file was generated using the DART python program. This file was generated on the 2023-10-04 at 09:55:46

0 1
Ni  0.0  0.0  0.0 
P  1.4908609702115085  -1.3628769451054632  -2.553465065113108e-15 
N  1.490860970211508  1.3628769451054632  -2.779265913080285e-16 
N  3.6825980833810115  1.7064837884685398  0.735445180791624 
C  2.680371615443452  0.9083800352967302  0.35169865489397584 
C  1.7204146996761749  -3.1335184682939436  -0.2082373205014995 
C  1.6683614394243245  -3.97487110406787  0.9342881016985678 
C  2.9042446941671347  -0.55062608931427  0.24222412374460717 
C  1.165096939578104  -3.64219057364411  2.351574423466874 
C  2.433746971245732  -5.812569033433159  -0.4697557324052813 
C  2.410472773197491  -4.9622722262549255  -1.5555958317789151 
H  2.6605396911686547  -5.308224134600924  -2.383098951802143 
C  2.0414691492121246  -3.6444310180297643  -1.4956140396306181 
C  0.4573379259379098  -2.437497130192436  -3.0113487650485373 
H  -0.11387136708070478  -3.208919835503989  -3.0088163158388417 
H  0.36747872496671996  -1.9760855792388479  -3.848504255174135 
H  0.20793106125783223  -1.8502664210119615  -2.2952817011181574 
C  4.897860263135266  1.331437778749412  1.4856806005451333 
H  5.131444699757759  2.0667448793640255  2.073208156284839 
H  5.624829529401578  1.2224154561298874  0.8534016122220172 
C  1.2560107389715636  2.7927209798133843  0.07838217461082633 
H  1.0397456865722083  3.0388179816039935  0.9921605026644044 
H  0.5058545650594319  3.0332238155075  -0.4866398610343461 
C  1.9109375877688957  -2.879319297015724  -2.82608385733945 
C  2.4929002714414485  3.5311588252948196  -0.3710934341013739 
H  2.708386517578845  3.2919551824635347  -1.2862410915763212 
H  2.3394370856231403  4.487512580988544  -0.33296687421191884 
C  2.8331014403598394  -7.296088827543069  -0.6441872619023472 
C  2.0401303415702845  -5.304084212049396  0.7352278671782573 
H  2.0193929831054174  -5.877950816667526  1.4658642419009864 
C  3.626844943177695  3.1542459522399104  0.5408719696100407 
H  4.463485368815799  3.461261619723831  0.15914380964863137 
H  3.5107559297778406  3.5897455269678904  1.3984199982239542 
C  4.800834321642882  0.09241802273664163  2.3077300339051825 
H  3.931881434311037  0.06951732351204354  2.7369059507186764 
H  5.473519237110223  0.12725613498919533  3.0062181944615447 
C  4.988148296070149  -1.184041004798951  1.5189705483792288 
H  5.934513812072352  -1.3341665577586619  1.3759774070386694 
H  4.643055528317033  -1.9308589318725053  2.034680171564661 
C  4.289693387546636  -1.1395240509992046  0.19279762542240206 
H  4.230845892537992  -2.0420371131046164  -0.1590648975326901 
H  4.826530253225286  -0.6190322651871645  -0.4244791119900278 
C  2.2288032150236483  -3.784858542090047  -4.0321945150488325 
H  3.1290759405196256  -4.109349939929181  -3.95995019031336 
H  2.13494614083399  -3.280817992085114  -4.844541832133904 
H  1.6202395629245478  -4.5259888426850425  -4.043896603912923 
C  2.8378601691926484  -1.6721428194118069  -2.9524174631873947 
H  2.6016041981848494  -1.0181783597437104  -2.2909919634868015 
H  2.747067837049271  -1.2906757604325612  -3.827006861326733 
H  3.7461147355302122  -1.9508218126723538  -2.81650325700467 
C  0.9951098074150758  -2.227542650422541  2.738013924843097 
H  1.8460196391202437  -1.7849956529360378  2.7086136982594207 
H  0.6392004742654374  -2.1809998534166883  3.6283187741075853 
H  0.3906825919139487  -1.799826371932783  2.1281048363090447 
C  4.171280389928759  -7.371876594275014  -1.3654267320815854 
H  4.770551767919944  -6.719333084610478  -0.9940038012934552 
H  4.042163211103137  -7.192450589690956  -2.2996759028123677 
H  4.545287349436441  -8.248806271816456  -1.2558621625945225 
C  2.074600262735717  -4.245968924987726  3.3779251226014693 
H  2.953067096284533  -3.86947987963206  3.288697990618391 
H  2.1185752443255144  -5.197080718062846  3.2468368772565617 
H  1.7346120651221688  -4.059635367206139  4.256054971045298 
C  1.8627715579333506  -7.979070286979211  -1.5610866976839972 
H  2.2311433645735175  -8.817903289551968  -1.8505475514577607 
H  1.696965899359776  -7.42251092355018  -2.323800201277899 
H  1.0381005347788013  -8.136199656412803  -1.0939165629036882 
C  -0.17269508751449236  -4.2787444519055615  2.496891120091278 
H  -0.49570794639949756  -4.145662114097018  3.3915982254382615 
H  -0.09950942324726308  -5.2201322526220215  2.3212420175943067 
H  -0.7850157195559877  -3.883204544993213  1.8724085938216528 
C  2.934934340503334  -8.013248350646137  0.6150085524454383 
H  2.0554029893812826  -8.164591427319902  0.9708194791134617 
H  3.446513878116181  -7.494580584976876  1.2386289382183011 
H  3.3687104543666537  -8.856681005463738  0.4687971307678821 
Br  -1.5839191898578664  1.5839191898578664  0.0 
C  -1.2937473829822488  -1.2398794889499034  -0.4598005675376139 
C  -1.601562203225019  -1.4938654694550033  -1.7919791134336869 
H  -1.1309417375171225  -1.0428217585005106  -2.480879663633267 
C  -2.60218398542082  -2.411889969420291  -2.121542410022959 
H  -2.8231586547736818  -2.5626138747145775  -3.03270050271447 
C  -3.2683208079706407  -3.09759503004543  -1.143064365570095 
H  -3.9596020908062854  -3.707191723557817  -1.3683280760515548 
C  -2.9347449854640226  -2.896087320001541  0.14198826503765638 
H  -3.3668350933519986  -3.405606940434718  0.8171022443470677 
C  -1.9675509241539992  -1.9516175659140573  0.5112421903797603 
H  -1.7755298364628027  -1.8022912010877177  1.4301324877763764 

-Ni 0
lanl2dz
F 1 1.0
3.130 1.0
****
-P 0
6-31+g(d)
****
-N 0
6-31+g(d)
****
-C 0
6-31g(d)
****
-H 0
6-31g(d,p)
****
-Br 0
6-31+g(d)
****

-Ni 0
lanl2dz


