%chk=AJAMEBUN_PN_Pd_gaussain.chk
%nprocshared=32
%mem=64GB
#p opt rwb97xd/gen pseudo=read

This Gaussian input file was generated using the DART python program. This file was generated on the 2023-10-04 at 16:41:16

0 1
Pd  0.0  0.0  0.0 
N  1.4123038837304098  -1.5803473478953922  2.711890355360145e-15 
P  1.4123038837304103  1.5803473478953922  -8.251442965159443e-17 
C  3.071119535799803  1.0417394455671105  -0.4745379858337916 
C  3.513753965788441  -0.1930004188042529  0.0026288704343573016 
C  4.806229960880604  -0.6035053314514327  -0.31239084133476036 
H  5.128341377051683  -1.4034987327019066  0.037598477827932235 
C  5.623586516759553  0.15570516844141688  -1.1381892352628453 
H  6.475415166601849  -0.1431107283479131  -1.3599496265275928 
C  5.16083656788472  1.3598029590531795  -1.627693806702409 
H  5.704673131585243  1.8740157054359392  -2.17863613892959 
C  3.8961019277869213  1.802445458457876  -1.3036379043376412 
H  3.5915194165866753  2.6122649843389136  -1.6398009888260694 
C  1.6293433717332542  2.286163086116148  1.6703992499781062 
C  0.507200932729448  2.6823763495065505  2.4033932653016747 
H  -0.34605546638799  2.493955677053402  2.083659457959594 
C  0.6633587780022328  3.3473634622444797  3.595233857517036 
H  -0.08613236465696228  3.632556360248971  4.067365150700648 
C  1.9223971508308328  3.597220002027236  4.09812091767367 
H  2.0200125686243906  4.043775343762598  4.90874293006701 
C  3.032899337720713  3.1890001439946687  3.4006672486599436 
H  3.879914564600083  3.3493478551086016  3.7488462069198905 
C  2.902765772119409  2.5404153051204705  2.1829376186161884 
H  3.6584189198891255  2.2779004468821906  1.710123533092222 
C  1.090416130579559  3.042284992854778  -1.0410543437410604 
C  1.1016912281666127  4.3282248229221345  -0.511271288499819 
H  1.2516058099111473  4.453986555154407  0.39801539615267345 
C  0.8909706007536772  5.4221717215595335  -1.332106966418573 
H  0.8811794635075815  6.281095382745598  -0.97222901782189 
C  0.6943895079048444  5.236584445198683  -2.6907621201597087 
H  0.5586146322290007  5.9705358778028375  -3.245609736819921 
C  0.6996597720725879  3.979245276916339  -3.2153612435088332 
H  0.5633323804604258  3.861185294565959  -4.1273794685809335 
C  0.9057418333963025  2.8762701035651568  -2.4021507842970107 
H  0.9199999408060979  2.0219467728125755  -2.7720288897654295 
C  2.6141556605676723  -1.0976462815659578  0.8042134275660875 
H  2.3006160662911825  -0.6215096391992774  1.5877505234439662 
H  3.1234545051806624  -1.866832949053227  1.1058076871860247 
C  1.8736470657639501  -2.0304416331468413  -1.3686841501146965 
H  2.52571640856345  -1.3804315000150236  -1.7068392757700586 
C  2.587536749615639  -3.3532548253124776  -1.1215494137405768 
H  2.4532488732260638  -3.959428184147646  -1.8654595126727567 
H  3.539334741436416  -3.213579822665775  -1.000810868107449 
C  1.9602211273852626  -3.909604194437498  0.1462515878286552 
H  2.63824647376215  -4.0483256598747985  0.8262163624291067 
H  1.5263177274700872  -4.7571146621733895  -0.035415736201142155 
C  0.7342403497487368  -2.1417192774154867  -2.3735853598788696 
H  0.053966016740286005  -2.7198942534527686  -2.022422977306048 
H  1.0686014413419402  -2.501690343749478  -3.19767691536951 
H  0.36171253564514383  -1.2710287600222927  -2.533083512347104 
C  0.6626445287839684  -2.779201303972275  2.108455893192991 
H  0.07408749480619181  -2.0421222361640092  2.2821792236761946 
H  1.4911196919661553  -2.644099523794432  2.5740172564771946 
H  0.25367171163792457  -3.5927330580592263  2.4122407017793277 
C  0.9288568826951213  -2.872679443570342  0.6233644212484337 
H  0.07693469156840127  -3.098189879914992  0.19321381580249036 
Br  -1.654629867976521  1.654629867976521  0.0 
C  -1.352040782177733  -1.3199206589279684  -0.4819701001757076 
C  -1.6380700204479186  -1.599217458033982  -1.8139382277462257 
H  -1.1579680913617836  -1.159339363685303  -2.503515938957912 
C  -2.63068216563725  -2.52632649780156  -2.142289956238523 
H  -2.8368222554424674  -2.694399528648736  -3.0538898079700485 
C  -3.3101544432602585  -3.1961573187854975  -1.1619874135498987 
H  -3.9960123560788676  -3.811990145619169  -1.3868663427944008 
C  -2.9974710358883443  -2.9701089012107795  0.12423560353005347 
H  -3.438659168087169  -3.468581175155742  0.8017084178296768 
C  -2.0389854250767776  -2.015940632791841  0.4912562833419403 
H  -1.8619130127668426  -1.8492165108145995  1.4101568590026907 

-Pd 0
lanl2dz
F 1 1.0
1.472 1.0
****
-H 0
6-31g(d,p)
****
-P 0
6-31+g(d)
****
-N 0
6-31+g(d)
****
-C 0
6-31g(d)
****
-Br 0
6-31+g(d)
****

-Pd 0
lanl2dz


