%chk=OWAHEJUV_PN_Ni_gaussain.chk
%nprocshared=32
%mem=64GB
#p opt rwb97xd/gen pseudo=read

This Gaussian input file was generated using the DART python program. This file was generated on the 2023-10-04 at 16:41:16

0 1
Ni  0.0  0.0  0.0 
P  1.5666478185922958  -1.2750351416725734  -2.7554005390559702e-15 
N  3.6821628634368646  0.8306112575930588  -0.46541039556076996 
N  1.5666478185922954  1.2750351416725738  -1.4884144000551588e-15 
C  4.919237212064644  0.1403828385978444  -0.8058176157817623 
H  4.783554552588651  -0.827054606602207  -0.7360651567403748 
H  5.627679885884975  0.41675335458044704  -0.18865439927755195 
H  5.1782955381102855  0.3678757723373022  -1.7226371175404493 
C  3.527074837923964  2.2015201077656545  -0.47458856863388577 
H  4.204922211777089  2.8446954550147048  -0.6482075493113908 
C  2.230796668765419  2.459697011476857  -0.18749941078720073 
H  1.8419006945854148  3.3242202383065287  -0.12569826566350606 
C  2.468832319276538  0.30313204308470276  -0.17545672879784188 
C  1.8182743321103239  -2.2909084636430403  -1.5526474362853637 
C  3.1123077740052576  -3.10245136640777  -1.596018719754711 
H  3.1558861372077183  -3.602232065913888  -2.4375158609630394 
H  3.1294381917710963  -3.7282154994287335  -0.8426390222503908 
H  3.8806587825067154  -2.495825388252083  -1.5357571203612703 
C  0.6176868439784697  -3.2485339400658306  -1.680342542876428 
H  0.7212112380822364  -3.797681624012418  -2.4857232857810234 
H  -0.21129953942269908  -2.7281754665498292  -1.7445559774175377 
H  0.5780945586185442  -3.8299565971916003  -0.8933566187832415 
C  1.770123203999641  -1.2956790628789134  -2.7189278136888166 
H  1.895286358048347  -1.7760486385727632  -3.5640054820816895 
H  2.48321271225419  -0.63250921966126  -2.6114910310491584 
H  0.9009401038878361  -0.8423017432219099  -2.725711212591757 
C  2.1400727731185185  -2.0844406719752184  1.5795813651224675 
C  3.6519818101092616  -2.283093835893303  1.6875518904111033 
H  3.866103818251759  -2.7066829412818136  2.545215726319553 
H  4.101502109495243  -1.4139376426402506  1.6327884704137443 
H  3.959325196732712  -2.856272100643965  0.9552607464551851 
C  1.6962719670160817  -1.1412832595273534  2.7139448694047186 
H  1.9756518804132785  -1.5137887572008968  3.5768908284271683 
H  0.7209883369480907  -1.0489634903282172  2.699276497427395 
H  2.1098281105471894  -0.26129461974119506  2.587427163153823 
C  1.4280790788440694  -3.4253333886710564  1.718906889078028 
H  1.7188095026243322  -3.86456845105949  2.545124506087726 
H  1.6481661017708846  -3.993836276402557  0.9520013284121996 
H  0.46016331663039267  -3.2788965659533122  1.7504687998355688 
Br  -1.5839191898578664  1.5839191898578664  0.0 
C  -1.2937473829822488  -1.2398794889499034  -0.4598005675376139 
C  -1.601562203225019  -1.4938654694550033  -1.7919791134336869 
H  -1.1309417375171225  -1.0428217585005106  -2.480879663633267 
C  -2.60218398542082  -2.411889969420291  -2.121542410022959 
H  -2.8231586547736818  -2.5626138747145775  -3.03270050271447 
C  -3.2683208079706407  -3.09759503004543  -1.143064365570095 
H  -3.9596020908062854  -3.707191723557817  -1.3683280760515548 
C  -2.9347449854640226  -2.896087320001541  0.14198826503765638 
H  -3.3668350933519986  -3.405606940434718  0.8171022443470677 
C  -1.9675509241539992  -1.9516175659140573  0.5112421903797603 
H  -1.7755298364628027  -1.8022912010877177  1.4301324877763764 

-Ni 0
lanl2dz
F 1 1.0
3.130 1.0
****
-H 0
6-31g(d,p)
****
-P 0
6-31+g(d)
****
-N 0
6-31+g(d)
****
-C 0
6-31g(d)
****
-Br 0
6-31+g(d)
****

-Ni 0
lanl2dz


