%chk=EFEXAWIF_PN_Pd_gaussain.chk
%nprocshared=32
%mem=64GB
#p opt rwb97xd/gen pseudo=read

This Gaussian input file was generated using the DART python program. This file was generated on the 2023-10-04 at 16:41:16

0 1
Pd  0.0  0.0  0.0 
P  1.425153796963682  -1.5687691528711292  1.476906557402811e-16 
N  1.425153796963682  1.5687691528711292  -1.366076609352155e-16 
C  2.709293132687195  1.477928942417484  -0.14705652862878157 
H  3.1778176170963555  2.299706797776617  -0.23442193339794404 
C  3.5209910338407027  0.27324353568240656  -0.19489582275564457 
C  3.137335887634255  -1.0215183203131502  -0.17617217331802046 
C  4.359118667078755  -1.9212830291083605  -0.18277737275455713 
H  4.514393931095249  -2.3127984530800196  0.7131236737773227 
H  4.254242154610214  -2.6543211137082214  -0.8398776190325633 
C  5.4876142943499016  -1.0107700818172947  -0.5721150180513489 
H  5.684693274751794  -1.099584366407863  -1.5382564198846587 
H  6.3048565424372764  -1.2364872654780887  -0.06107497955991793 
C  5.0347058560912945  0.4148467407132023  -0.24978042190597816 
H  5.398704281154393  0.7196956976962877  0.6188253689899431 
H  5.310777115118675  1.0483817564808444  -0.9586309024273204 
C  1.0335471722752545  -2.595318117741227  -1.4858203775101266 
H  0.07899423460838473  -2.8774423481864697  -1.3892926727448796 
C  1.0942096507872932  -1.6958909187695834  -2.726200814090298 
H  0.5095542940183015  -0.9081883541580832  -2.5902920450362292 
H  2.020591709856501  -1.3714885080843668  -2.8528848958698942 
C  0.6435464661330608  -2.4546992927240066  -3.978493465835066 
H  -0.31776935062132217  -2.6772610822396894  -3.8985029644900067 
H  0.7574505602585387  -1.8737499648181004  -4.771899053001637 
C  1.440793742669725  -3.7327448619720816  -4.172786937110449 
H  2.3860421448770723  -3.5050226764955363  -4.3585747848461365 
H  1.0853835772977665  -4.2259494539822855  -4.954012944595047 
C  1.3682979302085172  -4.622001048866647  -2.937317989202276 
H  1.9298216774710992  -5.425160451060414  -3.078090379705297 
H  0.43426477629626503  -4.921927382284711  -2.8034254131752707 
C  1.8462379868993828  -3.8831604311258583  -1.6893923689080335 
H  2.80567030695623  -3.6584408225366647  -1.7840066952327787 
H  1.7438656029008435  -4.468597353645105  -0.8976363744591992 
C  1.5619772892153252  -2.7217379256760235  1.4318596826871275 
H  2.2782617095382935  -3.3838218614157536  1.2114832292307856 
C  1.9996767515767337  -1.9860389365113564  2.706055718621421 
H  2.8501552571791935  -1.5083264900188784  2.5369059625636745 
H  1.3144114812672856  -1.3157317003731008  2.953348517724876 
C  2.1887080201402616  -2.9757356086816698  3.860286837852004 
H  2.939648051161026  -3.585584140729261  3.6497231948127857 
H  2.420955055051622  -2.478200940453708  4.684121456380582 
C  0.9218179242896705  -3.798058850210869  4.105343691411803 
H  1.0969671410656407  -4.466591468971607  4.814193435374284 
H  0.19890140051998118  -3.200023050435635  4.421248316018557 
C  0.46793462618293535  -4.513098811920358  2.838606076568751 
H  -0.3836010982523108  -4.986487339888823  3.0137721451962816 
H  1.1456182286677024  -5.186420953082305  2.57866777784313 
C  0.2717498204540778  -3.5165341694178367  1.6912413894204228 
H  -0.46131119793262165  -2.8911670284305915  1.9187391307175894 
H  0.014182777209099218  -4.005363324807915  0.8697286718836394 
C  0.9260073745207452  2.9436438475019853  -0.04746148992746707 
C  0.7453500307241734  3.5227904276965245  -1.302912712708096 
C  0.20968528780917395  4.816037787441532  -1.3542832267251397 
H  0.0774418318336334  5.2375264900909  -2.1952323999161347 
C  -0.12726215692372533  5.481703987015118  -0.19716143096064026 
H  -0.48866335046096254  6.358605739884434  -0.24863679520988818 
C  0.0538860461687205  4.891941115717762  1.0318239001786338 
H  -0.1902357450911687  5.362774181658775  1.819915604898749 
C  0.5974660279751333  3.5973433947700735  1.1337863653135605 
C  1.0825887728877517  2.774959695014866  -2.567188064852863 
H  0.8056709483938751  3.3047042488767495  -3.343922148134438 
H  0.6119601604289121  1.915354205875843  -2.573705900162885 
H  2.049180606292604  2.6184845759377615  -2.606462161976454 
C  0.8210019596833913  2.9564207496760977  2.472100091702518 
H  0.3311964531776943  3.454413152554621  3.1589343893842736 
H  1.778465117488444  2.9652106853876488  2.682468336635516 
H  0.5007495647835497  2.030426171479969  2.448500627465067 
Br  -1.654629867976521  1.654629867976521  0.0 
C  -1.352040782177733  -1.3199206589279684  -0.4819701001757076 
C  -1.6380700204479186  -1.599217458033982  -1.8139382277462257 
H  -1.1579680913617836  -1.159339363685303  -2.503515938957912 
C  -2.63068216563725  -2.52632649780156  -2.142289956238523 
H  -2.8368222554424674  -2.694399528648736  -3.0538898079700485 
C  -3.3101544432602585  -3.1961573187854975  -1.1619874135498987 
H  -3.9960123560788676  -3.811990145619169  -1.3868663427944008 
C  -2.9974710358883443  -2.9701089012107795  0.12423560353005347 
H  -3.438659168087169  -3.468581175155742  0.8017084178296768 
C  -2.0389854250767776  -2.015940632791841  0.4912562833419403 
H  -1.8619130127668426  -1.8492165108145995  1.4101568590026907 

-Pd 0
lanl2dz
F 1 1.0
1.472 1.0
****
-H 0
6-31g(d,p)
****
-P 0
6-31+g(d)
****
-N 0
6-31+g(d)
****
-C 0
6-31g(d)
****
-Br 0
6-31+g(d)
****

-Pd 0
lanl2dz


