%chk=IYEQOCEF_PN_Ni_gaussain.chk
%nprocshared=32
%mem=64GB
#p opt rwb97xd/gen pseudo=read

This Gaussian input file was generated using the DART python program. This file was generated on the 2023-08-11 at 15:55:49

0 0
Ni  0.0  0.0  0.0 
P  1.4114159521558483  -1.4449930830284272  -5.200069092990875e-16 
N  1.4114159521558483  1.4449930830284277  5.446843506142688e-16 
N  3.506216659634506  1.9884173036857862  0.4138004499151311 
C  1.5365073526616886  2.8127708621841485  -0.06165142632035145 
C  2.8070541680115397  3.1507003067850894  0.20051891997396037 
C  4.91380865458285  1.8649307540989672  0.7535026545422405 
C  2.6251669441404397  0.9686164705139035  0.27550338020729986 
C  2.9295650729872484  -0.45702285205126353  0.432165153178547 
C  1.8191841513244098  -2.1279885254229303  -1.6582283713093404 
C  1.9434743883655345  -1.003771849869446  -2.6638250963356986 
C  0.7878239699635304  -3.170805932439096  -2.0835097980462196 
C  1.3986318601147099  -2.839959345272014  1.1833248346049696 
C  1.35833021791316  -2.3124630762916003  2.601188323748986 
C  2.58399162388627  -3.7919653279698124  0.995902799243388 
H  0.8249921655536663  3.3933705618323264  -0.22805006598756009 
H  3.1499587161224487  4.008309969111495  0.2593441523938127 
H  5.295639458669446  2.7071287163545827  0.8211299376687565 
H  4.9855429062388215  1.4243495516853661  1.636603544146127 
H  5.344944105131759  1.3196848499810307  0.13178898465664135 
H  3.1763168942717455  -0.6592277784496928  1.3598187234476438 
H  3.634620759090316  -0.7193887377103458  -0.11995987028631726 
H  2.6518484091277603  -2.588780246726209  -1.5637658212951548 
H  2.1721368629031104  -1.3877076531033803  -3.477899872835685 
H  1.1051044119253786  -0.5725229827856012  -2.6981997562271167 
H  2.6091663968299104  -0.4244027858698985  -2.342438090458118 
H  1.027484109623647  -3.554635665961142  -2.8985119962779327 
H  0.7444285319956537  -3.8899507243450353  -1.410458905291332 
H  -0.07329824188000611  -2.7827962481124824  -2.1255054066079624 
H  0.5945641955563452  -3.36048940789599  1.066873622862243 
H  0.6186741414366522  -1.7392667823244936  2.7263945021659053 
H  1.24356503642935  -3.0644969598881366  3.2356493556821566 
H  2.159359018333799  -1.8820658534228432  2.823642254807835 
H  3.3876677993168025  -3.354611061418236  1.20355534696308 
H  2.493396575088339  -4.549722436194295  1.6259946910088496 
H  2.5864275177340548  -4.139829913554206  0.13279087920208463 
Br  -1.5839191898578664  1.5839191898578664  0.0 
C  -1.2937473829822488  -1.2398794889499034  -0.4598005675376139 
C  -1.601562203225019  -1.4938654694550033  -1.7919791134336869 
H  -1.1309417375171225  -1.0428217585005106  -2.480879663633267 
C  -2.60218398542082  -2.411889969420291  -2.121542410022959 
H  -2.8231586547736818  -2.5626138747145775  -3.03270050271447 
C  -3.2683208079706407  -3.09759503004543  -1.143064365570095 
H  -3.9596020908062854  -3.707191723557817  -1.3683280760515548 
C  -2.9347449854640226  -2.896087320001541  0.14198826503765638 
H  -3.3668350933519986  -3.405606940434718  0.8171022443470677 
C  -1.9675509241539992  -1.9516175659140573  0.5112421903797603 
H  -1.7755298364628027  -1.8022912010877177  1.4301324877763764 

-Ni 0
lanl2dz
F 1 1.0
3.130 1.0
****
-P 0
6-31+g(d)
****
-H 0
6-31g(d,p)
****
-N 0
6-31+g(d)
****
-Br 0
6-31+g(d)
****
-C 0
6-31g(d)
****

-Ni 0
lanl2dz
