%chk=NIPARIBE_PN_Pd_gaussain.chk
%nprocshared=32
%mem=64GB
#p opt rwb97xd/gen pseudo=read

This Gaussian input file was generated using the DART python program. This file was generated on the 2023-08-13 at 16:51:13

0 1
Pd  0.0  0.0  0.0 
N  1.5214811706031723  -1.4755321235066357  2.7049940881993704e-15 
N  1.3816512794099376  -2.646783984084804  0.6717235820045949 
H  0.6687009028753851  -2.7378648781290558  1.209743415597514 
C  2.5148505643687984  -3.364242813435215  0.5975703032106402 
H  2.6673606939747447  -4.211348416957767  0.9997091559074069 
C  3.4013099575510957  -2.6638941774840497  -0.151060949383212 
H  4.282569330933402  -2.926332547229416  -0.3860368394469011 
C  2.7550120972006775  -1.4754446330359487  -0.5083087009612812 
C  3.305526409292932  -0.357992089148593  -1.264522992244697 
C  4.38659653621845  -0.6283054314647933  -2.1201434324137702 
H  4.657591201767749  -1.52907114427174  -2.2528203025729097 
C  5.062323596740798  0.3762490823857042  -2.7714151563358786 
H  5.789508909548378  0.16508347979650442  -3.3426198036559445 
C  4.682266451310085  1.6927601695069228  -2.592615090077479 
H  5.162253044310008  2.3914230949538067  -3.0225296015171126 
C  3.588672532430321  1.9868057874151859  -1.7772158350017087 
H  3.3179823108296964  2.891480839034959  -1.6699490884929793 
C  2.8866672585829414  0.9785153196588533  -1.1176472349894175 
P  1.5214811706031728  1.4755321235066352  4.134403571588152e-17 
C  1.0252558362113957  3.0911292304911244  -0.6555779323704622 
C  0.4677729481514066  3.1067527398900343  -1.9295605050434004 
H  0.31526942441685857  2.291209482085393  -2.3915997240475346 
C  0.13214930481957543  4.320378943936517  -2.5290425372081686 
H  -0.25026735005006695  4.3323549658193885  -3.399064517952453 
C  0.3565900415647296  5.506760176925056  -1.8524737781733829 
H  0.14199881105245038  6.334739094182773  -2.2660322097933356 
C  0.887009830814096  5.4922620411954455  -0.5860814766992082 
H  1.0281989290810294  6.310561053981777  -0.12502184476046804 
C  1.221173968636254  4.285335067780764  0.029841058882709444 
H  1.579226044541712  4.279936164650774  0.9095876887624791 
C  2.3124508849594596  1.7061325046026223  1.61558918516113 
C  3.369600556572644  2.6076630296302046  1.778704923983655 
H  3.677355796514643  3.1217128750496417  1.0413857741492694 
C  3.9657873303202695  2.7468551805349954  3.02523898927628 
H  4.6801678955419455  3.3613699346056287  3.1383952752840476 
C  3.5284978260452284  2.001176667358895  4.103154637385363 
H  3.934824417149346  2.11574340047634  4.955029824853874 
C  2.501009295401678  1.0873502629594123  3.9433431483794443 
H  2.2094732677227844  0.5644055789994159  4.681261465053604 
C  1.8964015455740895  0.9355001836351374  2.699398293388799 
H  1.1947971952877814  0.3026863023751657  2.589933927753111 
Br  -1.654629867976521  1.654629867976521  0.0 
C  -1.352040782177733  -1.3199206589279684  -0.4819701001757076 
C  -1.6380700204479186  -1.599217458033982  -1.8139382277462257 
H  -1.1579680913617836  -1.159339363685303  -2.503515938957912 
C  -2.63068216563725  -2.52632649780156  -2.142289956238523 
H  -2.8368222554424674  -2.694399528648736  -3.0538898079700485 
C  -3.3101544432602585  -3.1961573187854975  -1.1619874135498987 
H  -3.9960123560788676  -3.811990145619169  -1.3868663427944008 
C  -2.9974710358883443  -2.9701089012107795  0.12423560353005347 
H  -3.438659168087169  -3.468581175155742  0.8017084178296768 
C  -2.0389854250767776  -2.015940632791841  0.4912562833419403 
H  -1.8619130127668426  -1.8492165108145995  1.4101568590026907 

-Pd 0
lanl2dz
F 1 1.0
1.472 1.0
****
-C 0
6-31g(d)
****
-N 0
6-31+g(d)
****
-H 0
6-31g(d,p)
****
-Br 0
6-31+g(d)
****
-P 0
6-31+g(d)
****

-Pd 0
lanl2dz


