%chk=SAWIZODI_PN_Ni_gaussain.chk
%nprocshared=32
%mem=64GB
#p opt rwb97xd/gen pseudo=read

This Gaussian input file was generated using the DART python program. This file was generated on the 2023-10-04 at 09:55:46

0 1
Ni  0.0  0.0  0.0 
P  1.3051272447543194  1.5416688603587991  -3.5776434110020494e-15 
N  1.305127244754319  -1.5416688603587996  -3.3306690738754696e-16 
C  2.530299249407058  -1.4041092323134856  -0.35456062633528157 
H  3.087421744566803  -2.1251578657672923  -0.1726122721756833 
C  3.171215768967702  -0.24948013149236603  -1.0140393329599289 
C  2.786577360525836  1.0392495731068452  -0.9429960839143824 
C  3.5961281457563263  2.145410723435269  -1.5783032738916862 
H  3.601159072602563  2.92718865317791  -1.0050522221330427 
H  3.2080950452623  2.3933238809411215  -2.4323547882961267 
C  5.102065200690077  1.604522503895095  -1.7895557544455203 
H  5.511218118157879  2.1808392103201166  -2.4527475773919236 
H  5.571562003187809  1.7677785969976194  -0.9563047835434014 
C  5.336918416395966  0.611202255704056  -2.075721338690544 
H  6.208473893736002  0.4185427957919743  -1.6975062247342114 
H  5.452887149673952  0.6282655276403364  -3.0384983417669194 
C  4.424406808534279  -0.6732003069442919  -1.7588638903323912 
H  4.1779919994730585  -1.1128074187090509  -2.5876946023364753 
H  4.924917431595887  -1.3059659027759178  -1.2194485430031548 
C  0.9529137852131833  -2.8007880265513556  0.6280438633126161 
C  0.39490661850866493  -3.799823097961921  -0.173440539528825 
C  -0.03206451476736105  -4.962910581341903  0.4642462545588489 
H  -0.41313765393309576  -5.644007194888098  -0.0392508215223204 
C  0.0991389569845944  -5.120788191286851  1.8169158111314672 
H  -0.1977151142661926  -5.903420205219592  2.22219607360354 
C  0.6733566522090246  -4.115810627791527  2.592541258987701 
H  0.7685004144296459  -4.239558956570509  3.5093887193838853 
C  1.1063034437023838  -2.92915837253729  2.0077669684826605 
C  1.7010449783236758  -1.8188571080999811  2.8362158016553853 
H  1.937756529399827  -1.083967850016165  2.264405492251868 
H  2.485393108461662  -2.1411520170627014  3.2859788641736287 
H  1.0574264042525108  -1.5253235409144303  3.4854707177291373 
C  0.2574503318369501  -3.6216949395348985  -1.6553083839838876 
H  0.6033244423722091  -2.764150311116892  -1.9077855511354342 
H  -0.6702102033205639  -3.6788615673796663  -1.8992068632168704 
H  0.7506573001176463  -4.31001758279892  -2.1072677242009106 
C  0.7479569418204126  3.089780443441912  -0.7495590702889644 
C  -0.2490397655976202  3.026200256074577  -1.7194698162712911 
H  -0.6109203462411463  2.2050362191325794  -1.9603463817280389 
C  -0.7033239146663284  4.193173625817084  -2.328942478674423 
H  -1.3645804324095143  4.151707405901918  -2.9829426242004833 
C  -0.17138731891391723  5.416599987663061  -1.9623609662659716 
H  -0.4821109500008267  6.194931924471292  -2.3643893125657436 
C  0.8158158839770376  5.488401891980073  -1.0025368767900114 
H  1.1702825953691287  6.312567364651221  -0.7627166854557006 
C  1.2817820615781237  4.332841884375466  -0.39299090628680644 
H  1.9482408089890455  4.384312444649696  0.252336870447262 
C  1.915600397681422  1.9649229045821082  1.6500704026204192 
C  0.9930764899085573  2.4226621591946467  2.590576768560769 
H  0.11775243479935216  2.601747728151228  2.3318350294874204 
C  1.3729512368260401  2.6132716717534006  3.9086708662550493 
H  0.7551513248799797  2.917343889889077  4.533838575719885 
C  2.686687141333631  2.344004888416162  4.292925667915227 
H  2.945372837349283  2.46202114967583  5.178148313781907 
C  3.602386516314109  1.9004475055156271  3.3630804588966385 
H  4.478708518332946  1.7292418518329218  3.620944110706629 
C  3.220796494845038  1.710683300943243  2.0460787382530166 
H  3.8430525144014096  1.4099633493888593  1.4229979915893027 
Br  -1.5839191898578664  1.5839191898578664  0.0 
C  -1.2937473829822488  -1.2398794889499034  -0.4598005675376139 
C  -1.601562203225019  -1.4938654694550033  -1.7919791134336869 
H  -1.1309417375171225  -1.0428217585005106  -2.480879663633267 
C  -2.60218398542082  -2.411889969420291  -2.121542410022959 
H  -2.8231586547736818  -2.5626138747145775  -3.03270050271447 
C  -3.2683208079706407  -3.09759503004543  -1.143064365570095 
H  -3.9596020908062854  -3.707191723557817  -1.3683280760515548 
C  -2.9347449854640226  -2.896087320001541  0.14198826503765638 
H  -3.3668350933519986  -3.405606940434718  0.8171022443470677 
C  -1.9675509241539992  -1.9516175659140573  0.5112421903797603 
H  -1.7755298364628027  -1.8022912010877177  1.4301324877763764 

-Ni 0
lanl2dz
F 1 1.0
3.130 1.0
****
-P 0
6-31+g(d)
****
-N 0
6-31+g(d)
****
-C 0
6-31g(d)
****
-H 0
6-31g(d,p)
****
-Br 0
6-31+g(d)
****

-Ni 0
lanl2dz


