%chk=IWAPIPOP_PN_Ni_gaussain.chk
%nprocshared=32
%mem=64GB
#p opt rwb97xd/gen pseudo=read

This Gaussian input file was generated using the DART python program. This file was generated on the 2023-08-13 at 16:51:13

0 1
Ni  0.0  0.0  0.0 
P  1.4354726947942968  -1.4210975133677488  -9.711888173659356e-16 
C  2.6477245961293283  -0.41444314479465916  -1.0249560575665477 
C  2.541493893770854  1.0272913637293901  -0.5137126861597853 
C  2.078280536525468  -0.3972385337317222  -2.4694010424448614 
N  1.4354726947942966  1.4210975133677493  -3.9607885702723904e-16 
C  4.059595899801607  -0.9651056099941845  -1.041029989481645 
C  1.2419214687906552  -2.970444851807732  -0.9121437758278269 
C  0.10489399145304734  -3.19600902103941  -1.7295875300630326 
C  -0.011705167346872658  -4.312495757575844  -2.466947729223105 
C  0.9529886093663409  -5.324289263281539  -2.4324231150673135 
C  2.105171378014541  -5.107835095213201  -1.634143520717039 
C  2.19662356339589  -3.9660835090360727  -0.875082005916693 
C  2.2219003329888545  -1.9660343334771515  1.5562177103390307 
C  1.6600743890668939  -3.0452114522700784  2.1964372156729586 
C  2.196376219918352  -3.480659483935068  3.425366252657803 
C  3.2531846057779603  -2.7823054789040436  4.003821202704871 
C  3.7910310514092256  -1.7109140081021392  3.3628096449192375 
C  3.2628998926381443  -1.2788105358043211  2.1603825708880002 
C  3.75759577305655  1.8849655335416848  -0.6814567699141354 
C  4.6294402821677245  2.151437697793516  0.41571502958295486 
C  5.740393222050522  2.8729394317386845  0.27270348011965456 
C  6.14494755925585  3.374752757912214  -0.947458076364994 
C  5.334880021679731  3.12237369058836  -2.027250566125018 
C  4.203736696219488  2.3852134111945618  -1.9204269743917093 
C  1.238814905220014  2.834016796606549  0.35840170598326754 
C  1.4524275033223664  3.2081067270998878  1.6847463828434976 
C  1.1679854368970666  4.531235184023323  2.009151202978962 
C  0.6454120897307205  5.4270091284750706  1.115556436167552 
C  0.4688846159588034  4.996262062040939  -0.16413749042666312 
C  0.7422847458787925  3.6970256108951625  -0.5798805155922908 
C  1.9299609820848667  2.2836478967648377  2.735822982181801 
C  0.29332844257580026  6.8628450516303126  1.505323734928025 
C  0.4817410786094214  3.2520007417000367  -2.0084684769176504 
H  1.5189167170750322  -0.1704410747479231  -2.4328774871917664 
H  2.414049955443476  -0.05624205006916928  -2.8313477725713128 
H  2.058610633879998  -0.9556671760557464  -2.695707728961338 
H  4.282568925163488  -0.9750850624009312  -0.48868623737555533 
H  4.043877468566167  -1.5315633002144093  -1.264487068380176 
H  4.403806859803266  -0.607268170820223  -1.3908205441570958 
H  -0.3261158701295319  -2.767167692933945  -1.746035159901522 
H  -0.49382803703171074  -4.3909332356176165  -2.826493206965915 
H  0.8707972601838398  -5.838608360405214  -2.7237740691647057 
H  2.5591444449457557  -5.501033475158154  -1.6396004896318652 
H  2.668780790213649  -3.896821323243669  -0.5076371627319896 
H  1.1977527094568268  -3.325164732222828  1.9370725966397695 
H  1.9575711998229925  -3.9574394751928983  3.7121853285810125 
H  3.4978691408030995  -2.9736388620408816  4.509080645780386 
H  4.251436571185589  -1.4055422085473124  3.6142567395457172 
H  3.478368447996708  -0.7720261995955566  1.900914522324915 
H  4.481484443792834  1.933132537815575  0.9576916407183503 
H  6.101365994326391  2.960581760170351  0.746133876210315 
H  6.643137161903035  3.7171069246203357  -0.995037949755367 
H  5.481259066346063  3.353382809886597  -2.557747929062511 
H  3.880046615069039  2.2483964382767545  -2.410956940129205 
H  1.2781136035017353  4.721774937596116  2.5719250023235376 
H  0.26074174873682465  5.3808421699216655  -0.5708451710119526 
H  2.02022260534755  1.744754514856693  2.4908464479961987 
H  2.4403710409220998  2.4856406821295365  2.966184169230297 
H  1.5175946947071917  2.248056806410919  3.1714587581710902 
H  0.07337575490532755  7.16525536545991  1.0324950056020352 
H  -0.12158179285003823  6.85523699525255  1.9421419396963566 
H  0.7873867810136986  7.14475088584053  1.7116602291752272 
H  0.28961542317213773  3.7131953211253537  -2.333512385384656 
H  0.9830203396153046  3.0386787935941775  -2.2539769471212767 
H  0.06006326699154019  2.826383245848801  -1.9990620740728933 
Br  -1.5839191898578664  1.5839191898578664  0.0 
C  -1.2937473829822488  -1.2398794889499034  -0.4598005675376139 
C  -1.601562203225019  -1.4938654694550033  -1.7919791134336869 
H  -1.1309417375171225  -1.0428217585005106  -2.480879663633267 
C  -2.60218398542082  -2.411889969420291  -2.121542410022959 
H  -2.8231586547736818  -2.5626138747145775  -3.03270050271447 
C  -3.2683208079706407  -3.09759503004543  -1.143064365570095 
H  -3.9596020908062854  -3.707191723557817  -1.3683280760515548 
C  -2.9347449854640226  -2.896087320001541  0.14198826503765638 
H  -3.3668350933519986  -3.405606940434718  0.8171022443470677 
C  -1.9675509241539992  -1.9516175659140573  0.5112421903797603 
H  -1.7755298364628027  -1.8022912010877177  1.4301324877763764 

-Ni 0
lanl2dz
F 1 1.0
3.130 1.0
****
-C 0
6-31g(d)
****
-N 0
6-31+g(d)
****
-H 0
6-31g(d,p)
****
-Br 0
6-31+g(d)
****
-P 0
6-31+g(d)
****

-Ni 0
lanl2dz


