%chk=AWEFUKUV_PN_Pd_gaussain.chk
%nprocshared=32
%mem=64GB
#p opt rwb97xd/gen pseudo=read

This Gaussian input file was generated using the DART python program. This file was generated on the 2023-08-11 at 15:55:49

0 0
Pd  0.0  0.0  0.0 
P  1.5076944642400212  -1.4896165286744096  -3.5300381235774183e-15 
N  1.5076944642400203  1.4896165286744096  -5.154923187673577e-16 
C  1.2893462128126079  2.5181091141879177  1.0455336927341732 
C  0.924638910431896  1.9418308281488201  2.391069482161576 
C  1.5068569280316164  2.115918027779162  -1.3542895963390833 
C  2.547438864833758  3.1513714953723193  -1.6351361723382154 
C  2.8121206826721425  0.806063845551251  0.2582667227151873 
C  2.9294407109215497  -0.4874447708674075  -0.488629796370462 
C  1.5077378407233215  -2.8749365021553466  -1.137876623010281 
C  1.2829377733465712  -2.60513451468838  -2.495575447222137 
C  1.3163518707188315  -3.6268503896823128  -3.4278408970175405 
C  1.5285179965805966  -4.902504283433743  -2.9895400204571096 
C  1.7034809452021138  -5.173829414579854  -1.6512100275860788 
C  1.687413088305215  -4.176392704259385  -0.7399926205531325 
C  1.9492900875875132  -2.182146404747959  1.618451233799138 
C  3.2105381850568926  -2.7126424383165575  1.8661585106358383 
C  3.5170320374789545  -3.26243019189955  3.110723801987697 
C  2.5327365082459234  -3.296901731394144  4.090454481356671 
C  1.2844159770454346  -2.7863086053385158  3.860653413021276 
C  1.0054305155530652  -2.2305128692796816  2.6326544301003776 
H  2.091766315603473  3.028010129233662  1.1256485695825509 
H  0.5901163702143956  3.0973928146500036  0.7440399422200845 
H  0.797086655528319  2.653257762262569  3.0217493214513165 
H  0.11018580309297987  1.4518805080825725  2.3259401507280804 
H  1.6106265611490733  1.3722747419559553  2.704541040272026 
H  1.6027477160246186  1.417867747734721  -1.989931959077721 
H  0.6404713595738931  2.5192139824330795  -1.4737230913394075 
H  3.3984560353100726  2.7906753634099974  -1.5508281303617335 
H  2.420457772361628  3.481811911093287  -2.535818104994098 
H  2.4325534810207525  3.889516037161524  -1.042279736079872 
H  3.5065366602422907  1.394203325165935  -0.013846879689891237 
H  2.8819818832166524  0.639814240211292  1.186767816620205 
H  3.7437675194443445  -0.9362469304372445  -0.25846111803535243 
H  2.9232500595389865  -0.34134381413750997  -1.4327367586782738 
H  1.0841884525347192  -1.7099457400400133  -2.791941682175423 
H  1.2314719831259036  -3.440879178523344  -4.3472371953037126 
H  1.5504220210695534  -5.613694505619816  -3.6354410744724563 
H  1.8245848291846682  -6.081881308447939  -1.3579928089120548 
H  1.8095381935548742  -4.345527924734015  0.1752104475485738 
H  3.8616708318558866  -2.710678916199493  1.1828893170866033 
H  4.393817491811796  -3.5750968923788116  3.278268009532427 
H  2.721493160789006  -3.7716545327941966  4.906963166970944 
H  0.6154188517410724  -2.7767034219073596  4.557950987078314 
H  0.13806974112234194  -1.864001103002595  2.4716205449724646 
Br  -1.654629867976521  1.654629867976521  0.0 
C  -1.352040782177733  -1.3199206589279684  -0.4819701001757076 
C  -1.6380700204479186  -1.599217458033982  -1.8139382277462257 
H  -1.1579680913617836  -1.159339363685303  -2.503515938957912 
C  -2.63068216563725  -2.52632649780156  -2.142289956238523 
H  -2.8368222554424674  -2.694399528648736  -3.0538898079700485 
C  -3.3101544432602585  -3.1961573187854975  -1.1619874135498987 
H  -3.9960123560788676  -3.811990145619169  -1.3868663427944008 
C  -2.9974710358883443  -2.9701089012107795  0.12423560353005347 
H  -3.438659168087169  -3.468581175155742  0.8017084178296768 
C  -2.0389854250767776  -2.015940632791841  0.4912562833419403 
H  -1.8619130127668426  -1.8492165108145995  1.4101568590026907 

-Pd 0
lanl2dz
F 1 1.0
1.472 1.0
****
-P 0
6-31+g(d)
****
-H 0
6-31g(d,p)
****
-N 0
6-31+g(d)
****
-Br 0
6-31+g(d)
****
-C 0
6-31g(d)
****

-Pd 0
lanl2dz
