%chk=ICOMUDIX_PN_Pd_gaussain.chk
%nprocshared=32
%mem=64GB
#p opt rwb97xd/gen pseudo=read

This Gaussian input file was generated using the DART python program. This file was generated on the 2023-08-13 at 16:51:13

0 1
Pd  0.0  0.0  0.0 
P  1.5906298838824824  1.40071288010784  9.99465700195641e-17 
N  1.5906298838824826  -1.40071288010784  -2.220446049250313e-16 
C  2.1147902219249772  -0.9173410844919723  1.0992611096669942 
C  3.2352423698554795  -1.4169947500926743  1.9477999824652714 
C  3.8180711656385293  -2.6831712200794833  2.023998352906056 
C  4.901469461176502  -2.8276667607961623  2.8498240499744476 
C  5.468828156562674  -1.7441155801408164  3.5208711270637263 
C  4.920285650580356  -0.4873316453315162  3.377218767751722 
C  3.7705818107697935  -0.324828852480439  2.596741539999088 
C  3.088901280024344  0.9932132646577028  2.2989653296453127 
C  3.8843510096185723  1.9042909474028984  1.3284913765213082 
C  3.424437105468161  1.6135105699363597  -0.13612203078097518 
C  1.8274618490608685  0.5139774380061195  1.5726561912860877 
C  1.884341302252049  -2.777521651832367  -0.3416779460570168 
C  2.83860432897185  -3.031356809664731  -1.3171659308542756 
C  3.121079097733965  -4.335247889654935  -1.6051335619081364 
C  2.4771857669464095  -5.341386945712946  -0.9886390619797041 
C  1.487124309228897  -5.102904920064491  -0.005870715224004376 
C  1.1757298321825895  -3.756537147780704  0.32566893763920124 
C  3.5654920351160695  -1.8756613220389087  -1.9998620730271564 
C  0.1449398501581376  -3.4668598372038484  1.3538087523993436 
C  1.0107361225468545  3.0625535064471845  0.27710737668291435 
C  0.8866596864081081  3.947907601930711  -0.8036181868186091 
C  0.47286641505882954  5.267246969223258  -0.6118431297904282 
C  0.1726891115785929  5.697616132355098  0.6532283345547948 
C  0.30216740881900694  4.876784728340677  1.7411408433198465 
C  0.731073983872378  3.5551864898369536  1.5538974032215591 
H  3.4763812554035765  -3.4163860991494395  1.5226266281806968 
H  5.278451848570873  -3.692740590135627  2.969072946767577 
H  6.229280782963879  -1.8711274771016726  4.075380704104511 
H  5.319370028042541  0.26079401259726853  3.8047231532429837 
H  2.8580881143637207  1.4794332028562902  3.142478307764752 
H  4.853949380645406  1.725914512411621  1.4178912442053269 
H  3.7217604998722615  2.8539837780261057  1.5499782239938302 
H  3.8513008889454596  0.7912712185631285  -0.4842703460271979 
H  3.6488963228211913  2.369471962908256  -0.7326510259532605 
H  1.0162643340033584  0.559473685599055  2.155910383743808 
H  3.7850934831988243  -4.536019735187153  -2.2545880190776515 
H  2.6920773290033995  -6.2370173763429655  -1.2196813704130123 
H  1.0436557828461313  -5.825104850804127  0.4227771427521756 
H  4.514963396791323  -2.097834534279265  -2.095785829841353 
H  3.4729074870591736  -1.065359731242788  -1.4567412914192557 
H  3.175222123425167  -1.7224589362769689  -2.8857595134939773 
H  -0.4239610719887148  -4.256692347286018  1.4758805214443071 
H  -0.4042810984835068  -2.709992566219391  1.0624599173480926 
H  0.5831368009302293  -3.2455092882061622  2.201620657713538 
H  1.0881954093699893  3.644844668028569  -1.681521325248405 
H  0.3999803133254689  5.861319392499565  -1.3512673058062985 
H  -0.1325254166901102  6.589381091997529  0.7794684964988203 
H  0.10488463150293881  5.1988206976003255  2.6127220846722947 
H  0.831274953484218  2.9838317558543657  2.3060032426115544 
Br  -1.654629867976521  1.654629867976521  0.0 
C  -1.352040782177733  -1.3199206589279684  -0.4819701001757076 
C  -1.6380700204479186  -1.599217458033982  -1.8139382277462257 
H  -1.1579680913617836  -1.159339363685303  -2.503515938957912 
C  -2.63068216563725  -2.52632649780156  -2.142289956238523 
H  -2.8368222554424674  -2.694399528648736  -3.0538898079700485 
C  -3.3101544432602585  -3.1961573187854975  -1.1619874135498987 
H  -3.9960123560788676  -3.811990145619169  -1.3868663427944008 
C  -2.9974710358883443  -2.9701089012107795  0.12423560353005347 
H  -3.438659168087169  -3.468581175155742  0.8017084178296768 
C  -2.0389854250767776  -2.015940632791841  0.4912562833419403 
H  -1.8619130127668426  -1.8492165108145995  1.4101568590026907 

-Pd 0
lanl2dz
F 1 1.0
1.472 1.0
****
-C 0
6-31g(d)
****
-N 0
6-31+g(d)
****
-H 0
6-31g(d,p)
****
-Br 0
6-31+g(d)
****
-P 0
6-31+g(d)
****

-Pd 0
lanl2dz


