%chk=QIRAYITU_PN_Pd_gaussain.chk
%nprocshared=32
%mem=64GB
#p opt rwb97xd/gen pseudo=read

This Gaussian input file was generated using the DART python program. This file was generated on the 2023-08-11 at 15:55:49

0 0
Pd  0.0  0.0  0.0 
P  1.516553809628924  -1.4805960092138564  2.3526550379567825e-16 
N  1.516553809628923  1.4805960092138564  3.7379079596116884e-16 
C  2.292254391392277  -1.5562740600141516  1.6287050961052352 
C  3.664533223229039  -1.5800114602106166  1.797394377106295 
H  4.21943209266746  -1.5376990572255083  1.052336865735793 
C  4.219873580860484  -1.6661217017664443  3.059192508141938 
H  5.14368999569423  -1.6780695017671972  3.1627907309012637 
C  3.406256181574512  -1.7304841709389767  4.159604908172571 
H  3.7753527678032692  -1.799185237514192  5.009939750152886 
C  2.040268321881525  -1.6945065648475734  4.003263138221729 
H  1.4912416047101846  -1.7438330384740812  4.753013265151775 
C  1.4735000482577645  -1.5877351910114805  2.7510002234379565 
H  0.5493969645158402  -1.537093848245866  2.6579787473070176 
C  1.0733839434661048  -3.169655857030035  -0.40651191891557203 
C  0.5077542186232629  -3.4582374061771697  -1.648317778889702 
H  0.34499238101050067  -2.763100127949278  -2.243846156580341 
C  0.18581993963724197  -4.7387425326273345  -2.0116836429284217 
H  -0.168635637600959  -4.913228059666658  -2.8530111799902653 
C  0.3945748967622156  -5.772384323146944  -1.108135820858555 
H  0.17548225041513366  -6.646250662748239  -1.3417230054994627 
C  0.9166338426174768  -5.512060083718085  0.11176018594624944 
H  1.0475334403747434  -6.211866187849183  0.7096843382664708 
C  1.259462488777176  -4.226935064361664  0.48758165153392796 
H  1.6123056350674145  -4.064083821686746  1.3325179963997749 
C  2.830557999805343  -1.0585839234648469  -1.1743685442316047 
C  3.251358128544115  0.2908268358285198  -1.266681676324101 
C  4.32112829856084  0.6033680166234773  -2.115273971628356 
H  4.628433207309766  1.4797151072042045  -2.1639911132676626 
C  4.922351110816364  -0.3668306608420354  -2.8796502377877293 
H  5.62196214918588  -0.13929903985727218  -3.448009108962967 
C  4.501279505097037  -1.6708952523879634  -2.808648167866551 
H  4.898462621575435  -2.321108861643306  -3.340083972384498 
C  3.471121313790586  -2.01129753083771  -1.9319281214945734 
H  3.213949730706271  -2.902224621543834  -1.8574078162091539 
C  2.6754107905430073  1.3983384256177303  -0.5084147890528683 
H  3.226946004260051  2.1368067236516697  -0.3851572909890332 
C  1.2046505076178309  2.7239549494945727  0.7606719699177844 
H  0.3840157036252705  3.1088634535385573  0.41445736596421484 
H  1.9163216210171807  3.3684450731081457  0.6213633308550729 
C  1.0453561433639358  2.4777794683155254  2.2496493767253183 
H  0.37598016013518665  1.7699924227753836  2.3553301755589184 
C  2.292622156553312  2.0066902342101716  2.9261592775048655 
H  2.701981738256069  1.2165018285145484  2.5162004669246305 
C  3.3113222688966837  3.115251327030817  3.3470319477935475 
C  2.3741670144141143  3.327452479840097  4.578940284376341 
H  2.8355051689172326  3.55735759769918  5.412275723429483 
C  1.1843358814644485  4.178040639718146  4.265610765596183 
H  1.4648731351981736  5.103771525436092  4.184130482733358 
H  0.5512471045112015  4.123975874919475  4.997914440107744 
C  0.48494416105392824  3.7444193270814288  2.9579422033647402 
H  0.529179570371718  4.4830991412872665  2.3328569766577445 
H  -0.45191524522575977  3.5889880996784913  3.1555858129586625 
C  1.9849845180646253  1.8582360315565343  4.443651324633819 
H  1.0551388475794776  1.6730798489827625  4.644368132935341 
H  2.5762500462472806  1.2466466416318682  4.9101433216868 
C  4.637950905049137  2.5021632602313026  3.689939142364161 
H  5.255932835594493  3.193256369784731  3.937801316661199 
H  4.97828803742732  2.028566147557526  2.9273761277931394 
H  4.527944125350514  1.8911231322220656  4.422523752073389 
C  3.5369473943486733  4.34000849827487  2.4612014932193866 
H  4.19185375279047  4.911633678089707  2.8687907171620317 
H  2.712217475517411  4.819600142843078  2.3617962345810466 
H  3.8504957345042845  4.058457756272439  1.5987293092832693 
Br  -1.654629867976521  1.654629867976521  0.0 
C  -1.352040782177733  -1.3199206589279684  -0.4819701001757076 
C  -1.6380700204479186  -1.599217458033982  -1.8139382277462257 
H  -1.1579680913617836  -1.159339363685303  -2.503515938957912 
C  -2.63068216563725  -2.52632649780156  -2.142289956238523 
H  -2.8368222554424674  -2.694399528648736  -3.0538898079700485 
C  -3.3101544432602585  -3.1961573187854975  -1.1619874135498987 
H  -3.9960123560788676  -3.811990145619169  -1.3868663427944008 
C  -2.9974710358883443  -2.9701089012107795  0.12423560353005347 
H  -3.438659168087169  -3.468581175155742  0.8017084178296768 
C  -2.0389854250767776  -2.015940632791841  0.4912562833419403 
H  -1.8619130127668426  -1.8492165108145995  1.4101568590026907 

-Pd 0
lanl2dz
F 1 1.0
1.472 1.0
****
-P 0
6-31+g(d)
****
-H 0
6-31g(d,p)
****
-N 0
6-31+g(d)
****
-Br 0
6-31+g(d)
****
-C 0
6-31g(d)
****

-Pd 0
lanl2dz
