%chk=IZAWIVOT_PN_Ni_gaussain.chk
%nprocshared=32
%mem=64GB
#p opt rwb97xd/gen pseudo=read

This Gaussian input file was generated using the DART python program. This file was generated on the 2023-08-11 at 15:55:49

0 0
Ni  0.0  0.0  0.0 
P  1.3817531210386318  -1.4733832877089377  2.296087979252633e-16 
P  2.7586510066306813  1.0680949693321642  -0.7221320735430011 
N  1.3817531210386318  1.4733832877089381  -2.359485639522533e-16 
C  2.486622053111561  -0.649231894022246  -1.2108658485663726 
H  3.335688010381628  -1.1158177822529838  -1.251435530707156 
H  2.0829064193227858  -0.67813435637216  -2.09249686248583 
C  1.0717372952886732  -3.0980511185231534  -0.7506514552720244 
C  0.6102909959564771  -3.1556578157811233  -2.0518155038315022 
H  0.4552629241938356  -2.3678979710194765  -2.52307591373951 
C  0.3810846900070899  -4.375121284647982  -2.6579187437273593 
H  0.08393456011146627  -4.413825531177528  -3.5384874926638754 
C  0.5937017756902541  -5.5233458295528255  -1.9502102519359485 
H  0.4358609381898807  -6.346255720084663  -2.355944009567803 
C  1.0280267431191814  -5.484201062891543  -0.6744273080497492 
H  1.1645311066983517  -6.27781902690295  -0.20900510625632324 
C  1.2712784524949319  -4.276777468609922  -0.05671467271044346 
H  1.5696843781211578  -4.255124576069239  0.8245712263006516 
C  2.364032644442884  -1.7900517499428938  1.4736546213163964 
C  3.615336853711716  -2.3969877132186315  1.3752338798608645 
H  3.959730829743507  -2.6248151277143994  0.5417481160489089 
C  4.337120721897014  -2.6557756424565824  2.5155284143159946 
H  5.174022757156919  -3.057349808483692  2.4537543699483817 
C  3.83428545297103  -2.3299906861561794  3.731108010464512 
H  4.335998800857128  -2.5004016831415066  4.4952887670001695 
C  2.599335738260884  -1.7559477727774309  3.8504881835965454 
H  2.2542536247520024  -1.5556249630495194  4.690853132198638 
C  1.8629853359200919  -1.472581198388488  2.7052180803057677 
H  1.0301026514904037  -1.0665606265587257  2.777101244038708 
C  4.235728066096389  1.13401710976246  0.32232809410405416 
C  5.264435727558289  0.21809341138901298  0.2842804133927179 
H  5.21340189373176  -0.49569387924554437  -0.31042313589344084 
C  6.369148746153028  0.3299449481715827  1.1137110676772006 
H  7.055905452338633  -0.29595760053587605  1.0608182890527647 
C  6.448759933731441  1.3505988320217128  1.9978151159622681 
H  7.190101533577954  1.418734496948456  2.5548417971023443 
C  5.4533787921210966  2.2789736116263883  2.081873378616841 
H  5.506160033644909  2.9645811473075967  2.706978703790411 
C  4.369001133653866  2.1995372721644455  1.2294153903323133 
H  3.7160182326770177  2.861762989762477  1.257050150755223 
C  3.1459983581328377  1.9393861979683884  -2.2498931688016546 
C  2.206758447709727  1.9206702126371837  -3.2672247531739895 
H  1.3780663694808846  1.5238821467775074  -3.128043000519013 
C  2.4992145334998708  2.4881549411358646  -4.4793868177533 
H  1.8645368451902495  2.4774367898362413  -5.159235398832027 
C  3.7223762243721614  3.074027502064847  -4.702688475456483 
H  3.9260933072050794  3.4276472827060163  -5.538316898202709 
C  4.625861807086853  3.134732941542907  -3.699751118766373 
H  5.439467207332806  3.564112258708731  -3.843073219926065 
C  4.363000937954255  2.569800233982272  -2.4742447542757002 
H  5.000747256055938  2.6089819835525203  -1.7973672142077857 
C  1.2192846648078868  2.724723092076407  0.6754864504455985 
C  1.4843673397785573  3.952551264888811  0.08164020479058688 
H  1.8282540287063738  3.9825362256037504  -0.7808114328733482 
C  1.241950535236549  5.125163299661194  0.7647174323297776 
H  1.435565982973893  5.932293440148388  0.34887739732281087 
C  0.7253984007640577  5.14023278645748  2.0338229531355307 
C  0.4776561814751581  3.9262597117517886  2.620825599357357 
H  0.13669937419185008  3.902767060322424  3.4857360403256856 
C  0.7192334574209842  2.7382291940975194  1.9634727877951583 
H  0.5423596268528079  1.9327140407082852  2.3963715469992795 
C  0.42421089455361416  6.452899474164656  2.738688453132963 
H  0.07118658598603589  6.271034909638026  3.6129675949005877 
H  -0.22099414490109837  6.94854038178995  2.228745399694012 
H  1.2309966377184145  6.96498428352422  2.819398568045616 
Br  -1.5839191898578664  1.5839191898578664  0.0 
C  -1.2937473829822488  -1.2398794889499034  -0.4598005675376139 
C  -1.601562203225019  -1.4938654694550033  -1.7919791134336869 
H  -1.1309417375171225  -1.0428217585005106  -2.480879663633267 
C  -2.60218398542082  -2.411889969420291  -2.121542410022959 
H  -2.8231586547736818  -2.5626138747145775  -3.03270050271447 
C  -3.2683208079706407  -3.09759503004543  -1.143064365570095 
H  -3.9596020908062854  -3.707191723557817  -1.3683280760515548 
C  -2.9347449854640226  -2.896087320001541  0.14198826503765638 
H  -3.3668350933519986  -3.405606940434718  0.8171022443470677 
C  -1.9675509241539992  -1.9516175659140573  0.5112421903797603 
H  -1.7755298364628027  -1.8022912010877177  1.4301324877763764 

-Ni 0
lanl2dz
F 1 1.0
3.130 1.0
****
-P 0
6-31+g(d)
****
-H 0
6-31g(d,p)
****
-N 0
6-31+g(d)
****
-Br 0
6-31+g(d)
****
-C 0
6-31g(d)
****

-Ni 0
lanl2dz
