%chk=UJUMIXER_PN_Pd_gaussain.chk
%nprocshared=32
%mem=64GB
#p opt rwb97xd/gen pseudo=read

This Gaussian input file was generated using the DART python program. This file was generated on the 2023-08-11 at 15:55:49

0 0
Pd  0.0  0.0  0.0 
P  1.562505390390702  -1.4320184722970577  1.3152546755223715e-16 
N  1.562505390390702  1.4320184722970581  -1.1986053261058966e-16 
C  1.5020102261198414  -2.420523161576204  -1.5289428976822583 
C  1.5216273373889528  -3.718413137128453  -1.128013564374709 
H  1.4546438577415453  -4.430193557366328  -1.7535761486301413 
C  1.649576432136729  -3.966126216158076  0.27055488573094405 
H  1.699372625537865  -4.847757591328008  0.6213147999724845 
C  1.695193894701553  -2.8662112601216276  1.074917065719845 
C  3.102496005179342  -0.46601488940958746  0.17910378056184434 
H  3.486104424893333  -0.6183240908754993  1.0796843696672176 
H  3.7635294573445375  -0.7714678451234597  -0.49077176531535033 
C  2.84266347491699  0.992434844587109  -0.009247857664205782 
C  3.897614296017716  1.8724210838558117  -0.15951952417751997 
H  4.790468466269494  1.546255319212582  -0.17385425956912473 
C  3.649148181569376  3.232909476770799  -0.2880453298141565 
H  4.362703821209674  3.852631950445639  -0.3876080977543133 
C  2.3381890384446784  3.6603195010410947  -0.26881758394857924 
H  2.1423703955819224  4.586541250731525  -0.3533491136152331 
C  1.3153468023063022  2.756991628513723  -0.12888404727264152 
H  0.417516451823301  3.065757345265091  -0.12177814053215257 
C  1.0248624601617702  -2.6816985599633947  -3.9651677868742916 
H  0.9422395922990234  -3.618795567411513  -3.832658201040223 
C  0.8326777061397262  -2.166488708084507  -5.214789345126404 
H  0.6222662863657735  -2.7462055700243915  -5.937421453748261 
C  0.9411821922713111  -0.8040499073682008  -5.437583152921933 
H  0.794285048697754  -0.44666093166661314  -6.304975220707277 
C  1.2635060475275697  0.031184210164806454  -4.3840217635185486 
H  1.3332459640364251  0.9682858334751699  -4.523059713857368 
C  1.485353173964854  -0.507896426666434  -3.112847959711546 
H  1.7410549663945876  0.06825421730993068  -2.402237258417335 
C  1.341931538845368  -1.8580189372362117  -2.868786530902284 
C  1.8782270583080267  -2.8053032713719492  2.5425271835395464 
C  1.6459118376259818  -1.6076625054334  3.2511171877038794 
H  1.3766429569578489  -0.822211988027871  2.7888671746036833 
C  1.8139467923643566  -1.5877314147721047  4.624192457166958 
H  1.6649514730836357  -0.7783436817069094  5.099172901391793 
C  2.191728256897862  -2.715564418496771  5.318040639959363 
H  2.3014872641357664  -2.6870104851565038  6.262439783976852 
C  2.408992584837289  -3.888379167391718  4.621924588873402 
H  2.6578866277782733  -4.673538791203305  5.094693222059383 
C  2.2709811862612606  -3.937135828950704  3.2624813602622535 
H  2.4436361263110205  -4.7505073549001136  2.8014884726260685 
Br  -1.654629867976521  1.654629867976521  0.0 
C  -1.352040782177733  -1.3199206589279684  -0.4819701001757076 
C  -1.6380700204479186  -1.599217458033982  -1.8139382277462257 
H  -1.1579680913617836  -1.159339363685303  -2.503515938957912 
C  -2.63068216563725  -2.52632649780156  -2.142289956238523 
H  -2.8368222554424674  -2.694399528648736  -3.0538898079700485 
C  -3.3101544432602585  -3.1961573187854975  -1.1619874135498987 
H  -3.9960123560788676  -3.811990145619169  -1.3868663427944008 
C  -2.9974710358883443  -2.9701089012107795  0.12423560353005347 
H  -3.438659168087169  -3.468581175155742  0.8017084178296768 
C  -2.0389854250767776  -2.015940632791841  0.4912562833419403 
H  -1.8619130127668426  -1.8492165108145995  1.4101568590026907 

-Pd 0
lanl2dz
F 1 1.0
1.472 1.0
****
-P 0
6-31+g(d)
****
-H 0
6-31g(d,p)
****
-N 0
6-31+g(d)
****
-Br 0
6-31+g(d)
****
-C 0
6-31g(d)
****

-Pd 0
lanl2dz
