%chk=IXEGUPUB_PN_Ni_gaussain.chk
%nprocshared=32
%mem=64GB
#p opt rwb97xd/gen pseudo=read

This Gaussian input file was generated using the DART python program. This file was generated on the 2023-08-11 at 15:55:49

0 0
Ni  0.0  0.0  0.0 
P  1.429333678676885  1.427271955515136  3.5376218844429862e-15 
N  -0.1344101067187904  3.8391563351514972  0.7285006540165779 
N  1.4293336786768855  -1.427271955515136  8.881784197001252e-16 
C  2.9512498427995473  0.44918856040200605  0.2767491492059171 
H  3.6276023888665287  0.7476348574472382  -0.3974079550425804 
C  3.433255829177499  0.9069492677958482  1.6411637320443377 
C  4.367007267601947  0.2774238143403376  2.383556980055081 
H  4.70622339941022  -0.5559650155906  2.078819709496689 
C  4.873737645866442  0.8166463269288569  3.6206752992395357 
H  5.767134043594645  1.2099036054952381  3.4573514204561118 
H  4.9845098409176165  0.07793968036025278  4.270720444686304 
C  3.9711383563095217  1.8840709435991476  4.2358361483007165 
H  3.2032860356607484  1.4395885010284668  4.675206358852935 
H  4.477128667356344  2.3685786348824207  4.9337059156743495 
C  3.449108315979199  2.878317989172061  3.234117775022913 
H  4.188069855091518  3.4743512130526235  2.951900749060066 
H  2.754039598743815  3.4379435264872087  3.6619826909782995 
C  2.8641601199206255  2.1999431277739436  2.01848100141373 
C  1.852866180087658  2.669192483099693  1.2185532173084854 
C  1.0850776425080002  3.9226832513354357  1.2794492394205275 
C  1.5917131648600065  5.113166297284966  1.7755786729334497 
H  2.4960000388169883  5.178857639175138  2.0599362597670132 
C  0.741719204806583  6.205706498873381  1.846263648606235 
H  1.027546918460585  7.0060830603169215  2.2711291896885255 
C  -0.4949999001550043  6.128248860493526  1.307927527135945 
H  -1.0696377814770979  6.884394720313551  1.3029642593927517 
C  -0.906748054241636  4.927316516537145  0.763861995379261 
H  -1.7819559472609647  4.872328478205183  0.3966204404905389 
C  2.7110074356279465  -0.9985603440835535  0.05877333550802377 
C  3.7713254665391243  -1.8802904867778998  -0.12215860967822068 
H  4.666178154827456  -1.563698243615025  -0.0737668972445722 
C  3.5304444554536887  -3.18471507650372  -0.36547595023801027 
H  4.254742813607493  -3.792332021297534  -0.46478575224750307 
C  2.266365059356918  -3.62278805732841  -0.4655924016084817 
H  2.094478223110559  -4.53738284422651  -0.6534734844881539 
C  1.1953999674145692  -2.7251965646562106  -0.2906910176132553 
H  0.3014237576078094  -3.036511786175876  -0.37986023399268304 
C  1.5265189093179108  2.1081886205169607  -1.6399816268080887 
C  0.5982521924086894  1.8402056768866042  -2.606412226593622 
H  -0.1662300058099997  1.3284006826265222  -2.3683546989723014 
C  0.7129224039163904  2.2715394620290468  -3.9068259639816527 
H  0.050369823516818624  2.0553351753774347  -4.552645477963244 
C  1.8534229081477844  3.0555447916903664  -4.2612798014705815 
H  1.9591601930926041  3.3915744026882906  -5.143190770392711 
C  2.7530283364469836  3.3027135170596496  -3.3354943594949606 
H  3.5268091424058943  3.796097985435783  -3.5813666244920674 
C  2.6365117289196487  2.8870113183950257  -2.039092395520908 
H  3.304630552539177  3.122310473333433  -1.4039026953442295 
Br  -1.5839191898578664  1.5839191898578664  0.0 
C  -1.2937473829822488  -1.2398794889499034  -0.4598005675376139 
C  -1.601562203225019  -1.4938654694550033  -1.7919791134336869 
H  -1.1309417375171225  -1.0428217585005106  -2.480879663633267 
C  -2.60218398542082  -2.411889969420291  -2.121542410022959 
H  -2.8231586547736818  -2.5626138747145775  -3.03270050271447 
C  -3.2683208079706407  -3.09759503004543  -1.143064365570095 
H  -3.9596020908062854  -3.707191723557817  -1.3683280760515548 
C  -2.9347449854640226  -2.896087320001541  0.14198826503765638 
H  -3.3668350933519986  -3.405606940434718  0.8171022443470677 
C  -1.9675509241539992  -1.9516175659140573  0.5112421903797603 
H  -1.7755298364628027  -1.8022912010877177  1.4301324877763764 

-Ni 0
lanl2dz
F 1 1.0
3.130 1.0
****
-P 0
6-31+g(d)
****
-H 0
6-31g(d,p)
****
-N 0
6-31+g(d)
****
-Br 0
6-31+g(d)
****
-C 0
6-31g(d)
****

-Ni 0
lanl2dz
