%chk=IVOGOHIL_PN_Pd_gaussain.chk
%nprocshared=32
%mem=64GB
#p opt rwb97xd/gen pseudo=read

This Gaussian input file was generated using the DART python program. This file was generated on the 2023-08-11 at 15:55:49

0 0
Pd  0.0  0.0  0.0 
C  3.0326855125347283  0.4779613527704974  0.496929719587421 
H  3.799030190040134  0.7730962753971786  -0.03563339658313956 
C  3.265003440798926  0.8643134374329429  1.9558536233206083 
C  4.254826555405462  0.38121387885700375  2.721519874564813 
H  4.79040648158276  -0.29721591911311024  2.3804990366352694 
C  4.530538519150822  0.8920791178795554  4.105914374194958 
H  5.489626507194416  0.9331317084675594  4.247704662989918 
H  4.157276054027458  0.2785385416777749  4.7558691599178236 
C  3.931948096418713  2.274427479099749  4.3152250620378005 
H  4.425301315786155  2.9258148094431413  3.7902048749898185 
H  4.0075427589751165  2.5227577513035375  5.249958726190453 
C  2.4614430377591203  2.2939850976284766  3.8985276754200107 
H  1.9521914333387969  1.705122085490106  4.477746672286212 
H  2.1074760624242157  3.1914775614493878  3.9978946606663004 
C  2.3078459713955306  1.8465120398227635  2.4629139099027806 
C  1.373029800943864  2.2845557143257196  1.5824862827294637 
C  0.32103353589214256  3.28605312932188  1.811852117310964 
C  -0.3895015965107249  3.3599212693066742  3.0192100648627305 
H  -0.2503119547837216  2.728853745666234  3.6890357916321963 
C  -1.3044963369630915  4.3912934927666445  3.197146743543226 
H  -1.7733285690244172  4.4756974050446665  3.995812391842032 
C  -1.5058882930974895  5.288088526236737  2.166700409206586 
H  -2.1060033470178308  5.993479672058642  2.2600013387532893 
C  -0.7982391805455986  5.113462951332219  0.9967496828536226 
H  -0.9688454151829862  5.701291561519233  0.294943742619099 
C  2.8205881982469503  -0.9926521644580755  0.2726111911139186 
C  3.8773425213656454  -1.8771105499886784  0.3346392076432383 
H  4.743106754395669  -1.5571739600286214  0.455633303411143 
C  3.6567163511588574  -3.242748830472846  0.2181865138309959 
H  4.366224335756403  -3.8430379768998284  0.25642537461801984 
C  2.3515159255173237  -3.6942620767680276  0.04259739877771541 
H  2.167016529037886  -4.605025036770059  0.013286250948578835 
C  1.3329831327967698  -2.764254202556872  -0.08798802942214173 
H  0.46713183389485824  -3.065929689618198  -0.24262026634642148 
C  2.011927517966126  2.5792074167578045  -1.3392287036163688 
H  1.2055077767799371  3.075264552225777  -1.5925613098409253 
C  3.082456803694625  3.6111383944479707  -0.9379939522786177 
H  2.7718818498283038  4.124870903381496  -0.17601181515478576 
H  3.897892620363595  3.1532992758220804  -0.6830822413877651 
C  3.3619750962298673  4.550386776999513  -2.116008663567299 
H  4.056312008039926  5.179437512417847  -1.8698474051050316 
H  2.5590575122056913  5.053046981013205  -2.3258051424836754 
C  3.8067825645834428  3.7489751077792257  -3.352958360416146 
H  3.947094066766551  4.356757358825837  -4.096868138324655 
H  4.647106028639557  3.306356657287299  -3.1650039961654475 
C  2.766075597811492  2.7176636860107055  -3.7333828872833745 
H  3.088146212400933  2.200032871914346  -4.488158568870933 
H  1.9507747065271328  3.168021499067835  -4.006150181674288 
C  2.457942092333099  1.7745770441273354  -2.5624939990011537 
H  1.7566164653856673  1.1548007614243514  -2.8183445498813016 
H  3.250109315025104  1.2595407556756053  -2.3422767588261033 
N  1.5532379461949806  -1.4420651450263955  -7.066570392376519e-16 
N  0.11305523835277453  4.156975091018009  0.802316647707228 
P  1.55323794619498  1.4420651450263955  -6.206912562519165e-16 
Br  -1.654629867976521  1.654629867976521  0.0 
C  -1.352040782177733  -1.3199206589279684  -0.4819701001757076 
C  -1.6380700204479186  -1.599217458033982  -1.8139382277462257 
H  -1.1579680913617836  -1.159339363685303  -2.503515938957912 
C  -2.63068216563725  -2.52632649780156  -2.142289956238523 
H  -2.8368222554424674  -2.694399528648736  -3.0538898079700485 
C  -3.3101544432602585  -3.1961573187854975  -1.1619874135498987 
H  -3.9960123560788676  -3.811990145619169  -1.3868663427944008 
C  -2.9974710358883443  -2.9701089012107795  0.12423560353005347 
H  -3.438659168087169  -3.468581175155742  0.8017084178296768 
C  -2.0389854250767776  -2.015940632791841  0.4912562833419403 
H  -1.8619130127668426  -1.8492165108145995  1.4101568590026907 

-Pd 0
lanl2dz
F 1 1.0
1.472 1.0
****
-P 0
6-31+g(d)
****
-H 0
6-31g(d,p)
****
-N 0
6-31+g(d)
****
-Br 0
6-31+g(d)
****
-C 0
6-31g(d)
****

-Pd 0
lanl2dz
