%chk=GEGURIMO_PN_Pd_gaussain.chk
%nprocshared=32
%mem=64GB
#p opt rwb97xd/gen pseudo=read

This Gaussian input file was generated using the DART python program. This file was generated on the 2023-10-04 at 16:41:16

0 1
Pd  0.0  0.0  0.0 
P  1.5352331606306584  1.4612183760478792  4.95712554870771e-16 
N  1.5352331606306584  -1.4612183760478792  -5.551115123125783e-16 
N  2.831123380589406  1.0428353711383043  1.0352066745428958 
C  1.1856184515319397  -2.496243078577658  -0.7911579427238161 
H  0.2646275028746976  -2.6188892880270016  -0.9888061144815186 
C  2.0928397083870047  -3.388743553781966  -1.3331141613157045 
H  1.7976336589103854  -4.106221093200515  -1.8809487246487637 
C  3.4380501136697115  -3.216384384797804  -1.0607205263198076 
H  4.087452065281219  -3.8050070431894323  -1.4268840024764788 
C  3.81387909566103  -2.168283556677764  -0.24167644301935454 
H  4.731842801139969  -2.031947733596469  -0.038202442792900665 
C  2.856579658970459  -1.3139450536427488  0.28155519855426975 
C  3.2863850992966857  -0.14722731456598614  1.1341584889476435 
C  4.37235523691397  -0.38177276007766436  2.13647639968917 
C  4.57023063235915  -1.6311400619984422  2.729161647327931 
H  4.045879783093421  -2.3752301260316737  2.4573184140457154 
C  5.538725468224351  -1.785438371337945  3.7209800050111155 
H  5.6619755102921125  -2.63168477794588  4.135313212023839 
C  6.315832463870262  -0.7089195697782948  4.103036463151506 
H  6.983524106441273  -0.819911176274957  4.770120501131877 
C  6.125676331723421  0.5342551088164114  3.5140301271007806 
H  6.664508501781119  1.270789265956477  3.777904695554962 
C  5.158348609160019  0.702661548971895  2.546190895578051 
H  5.024102500507759  1.558066552418858  2.1541488667219224 
C  1.4618688987860706  3.25714994795826  0.2758902392247898 
C  2.188771558050302  3.897805937743956  1.276865152350156 
H  2.7611711217049626  3.3925423528464926  1.8418828063261397 
C  2.0781919833701066  5.278345895403167  1.4540743027060223 
H  2.568078239585067  5.70878963694792  2.1452800834520045 
C  1.2521712037799695  6.020568151691343  0.619875061543681 
H  1.1858292360782305  6.961354623127669  0.7310838673274493 
C  0.5254307303655121  5.386416323197203  -0.37292736226425144 
H  -0.03647086559224966  5.896534976383082  -0.9446211667889874 
C  0.6116163553680091  4.011692207399346  -0.5389025817602066 
H  0.09206490887775987  3.5823217277473423  -1.208466167727451 
C  2.262958963789647  1.3675189145270679  -1.6732809167403366 
C  3.5366264131381273  1.8506005685569034  -1.9368348656957428 
H  4.0605236420450845  2.2140204643812913  -1.2325390948276946 
C  4.048858157474703  1.8051791681092095  -3.2233863945803365 
H  4.924914159352733  2.1295574046339802  -3.399314707374307 
C  3.2829098505623344  1.2860116826497041  -4.253895537276176 
H  3.628692055103436  1.2694291954614876  -5.137717531877679 
C  2.0245529685338655  0.7943999346898205  -3.998887583048408 
H  1.5064811073976574  0.42768965798957526  -4.705511117655971 
C  1.5063415947808516  0.8311033089965787  -2.707755655464109 
H  0.6373395653053667  0.4897630013630139  -2.5335183828955845 
Br  -1.654629867976521  1.654629867976521  0.0 
C  -1.352040782177733  -1.3199206589279684  -0.4819701001757076 
C  -1.6380700204479186  -1.599217458033982  -1.8139382277462257 
H  -1.1579680913617836  -1.159339363685303  -2.503515938957912 
C  -2.63068216563725  -2.52632649780156  -2.142289956238523 
H  -2.8368222554424674  -2.694399528648736  -3.0538898079700485 
C  -3.3101544432602585  -3.1961573187854975  -1.1619874135498987 
H  -3.9960123560788676  -3.811990145619169  -1.3868663427944008 
C  -2.9974710358883443  -2.9701089012107795  0.12423560353005347 
H  -3.438659168087169  -3.468581175155742  0.8017084178296768 
C  -2.0389854250767776  -2.015940632791841  0.4912562833419403 
H  -1.8619130127668426  -1.8492165108145995  1.4101568590026907 

-Pd 0
lanl2dz
F 1 1.0
1.472 1.0
****
-H 0
6-31g(d,p)
****
-P 0
6-31+g(d)
****
-N 0
6-31+g(d)
****
-C 0
6-31g(d)
****
-Br 0
6-31+g(d)
****

-Pd 0
lanl2dz


