%chk=BAGOCUFE_PN_Pd_gaussain.chk
%nprocshared=32
%mem=64GB
#p opt rwb97xd/gen pseudo=read

This Gaussian input file was generated using the DART python program. This file was generated on the 2023-10-04 at 16:41:16

0 1
Pd  0.0  0.0  0.0 
P  1.5704412564626533  -1.423311020121744  -1.4031490087815622e-14 
N  1.570441256462654  1.423311020121744  1.3564704601237987e-14 
C  1.3560382345411182  2.7242852020272657  0.09000873405496293 
H  0.4905322614186638  3.0538550032642995  -0.12214688477695786 
C  2.3357909205936593  3.6405169964585697  0.47881186295961353 
H  2.133735113807222  4.567002256080324  0.5084758924817582 
C  3.5724769257228344  3.208077388180006  0.8162141449755569 
H  4.252434781947807  3.828045762994079  1.052021371302967 
C  5.07697790785725  1.261834528511106  1.2134386985273913 
H  5.793916529812154  1.8320539032831609  1.4626444307727626 
C  5.249459944963249  -0.07924225865290542  1.2476576670334123 
H  6.0841316248297606  -0.43810836225148103  1.5231042254013303 
C  4.210781370212454  -0.9419845072831176  0.8844332036747753 
H  4.342589438604492  -1.8820317148748598  0.9170352067685834 
C  3.002528835894995  -0.43367536769806575  0.47716804198061175 
C  2.809863918013267  0.9554093734788047  0.41394256256596496 
C  3.8377549515758926  1.8330979266758007  0.8078865137932362 
C  1.2024174226790296  -2.556106064357518  1.3325390596609805 
C  0.8164519888382664  -2.0157502397155516  2.5755372964479664 
H  0.8298835844814203  -1.0760505036130703  2.714460362234813 
C  0.41767437540713015  -2.868999868806443  3.5898806680348647 
H  0.1630138884197072  -2.5045343003774723  4.428647128855144 
C  0.38306337780895117  -4.214978662560272  3.4108705688497993 
H  0.09329695423425188  -4.782463350433286  4.113751809742145 
C  0.775534445571869  -4.756195507726056  2.1898674535884703 
H  0.7671684487490491  -5.697496531226457  2.0651428238866427 
C  1.181603657612694  -3.916293537531403  1.1516742897236139 
H  1.4438024950033048  -4.286317890996285  0.3168337914762464 
C  2.104183365693084  -2.44715141016904  -1.392207282175414 
H  2.834472376878374  -3.034822599512025  -1.1052081822497157 
H  2.41868527073814  -1.8696527760828765  -2.1207177415043947 
H  1.351865926567681  -2.989534332163055  -1.7073217482301772 
Br  -1.654629867976521  1.654629867976521  0.0 
C  -1.352040782177733  -1.3199206589279684  -0.4819701001757076 
C  -1.6380700204479186  -1.599217458033982  -1.8139382277462257 
H  -1.1579680913617836  -1.159339363685303  -2.503515938957912 
C  -2.63068216563725  -2.52632649780156  -2.142289956238523 
H  -2.8368222554424674  -2.694399528648736  -3.0538898079700485 
C  -3.3101544432602585  -3.1961573187854975  -1.1619874135498987 
H  -3.9960123560788676  -3.811990145619169  -1.3868663427944008 
C  -2.9974710358883443  -2.9701089012107795  0.12423560353005347 
H  -3.438659168087169  -3.468581175155742  0.8017084178296768 
C  -2.0389854250767776  -2.015940632791841  0.4912562833419403 
H  -1.8619130127668426  -1.8492165108145995  1.4101568590026907 

-Pd 0
lanl2dz
F 1 1.0
1.472 1.0
****
-H 0
6-31g(d,p)
****
-P 0
6-31+g(d)
****
-N 0
6-31+g(d)
****
-C 0
6-31g(d)
****
-Br 0
6-31+g(d)
****

-Pd 0
lanl2dz


