%chk=GAZOPUQU_PN_Ni_gaussain.chk
%nprocshared=32
%mem=64GB
#p opt rwb97xd/gen pseudo=read

This Gaussian input file was generated using the DART python program. This file was generated on the 2023-08-11 at 15:55:49

0 0
Ni  0.0  0.0  0.0 
P  1.1242715630576108  -1.678127960705024  6.387190857043763e-15 
P  2.399458608134144  1.427349751382299  -0.9050776761128909 
C  0.9248454666673446  -2.9517434030590586  -1.3481079434065741 
H  0.0839500948372196  -3.4463482600398656  -1.1300905608755456 
C  0.68114004059968  -2.299229118904017  -2.7075942707666183 
H  -0.040520282745869496  -1.6408868256644398  -2.628689691426301 
H  0.42724760843975007  -2.985872111561086  -3.357981265967846 
H  1.5011080199309683  -1.8524391406922223  -3.006711786537388 
C  2.0152193645630256  -4.014146105205195  -1.4535105584613726 
H  2.861176048399372  -3.5909721687542158  -1.709829595173891 
H  1.7635091828920462  -4.675268728734983  -2.1309556123958417 
H  2.1215259072347  -4.459170124521484  -0.5871217131864657 
C  0.9723086122904707  -2.746986827252024  1.5167198933877322 
H  1.4660116483231649  -3.596459053673364  1.327267976662453 
C  -0.48330293154278703  -3.1264416244490594  1.7841900979780134 
H  -1.0088909206111152  -2.3157217736050124  1.9457295952984373 
H  -0.5300369782610559  -3.708269013577238  2.572067568234441 
H  -0.8448003156311672  -3.6006612034289986  1.006952648925683 
C  1.5639745871447719  -2.1651920071539044  2.80125335792137 
H  2.4322430255033494  -1.755389774485616  2.6044607283580214 
H  1.6831828945364629  -2.8805515763345846  3.460388675007653 
H  0.9567125813194726  -1.48536467770478  3.1628102115628383 
C  2.9210420694731347  -1.2421132483986996  -0.010380651608005068 
C  3.823515578000867  -2.233689158558086  0.40620762330774846 
H  3.4882267374056024  -3.077410128087225  0.6845393120338024 
C  5.195831903722448  -2.0134888468698438  0.4215664933987261 
H  5.784966328451534  -2.7040648649901353  0.7024944072774323 
C  5.7000627503650145  -0.794809820068572  0.030126609216217667 
H  6.638518159021603  -0.643595677916152  0.031707487571004465 
C  4.830577627582075  0.21564838973779027  -0.36752268035192714 
H  5.182637860881163  1.0591954273577828  -0.6275311560828584 
C  3.4426181041107187  0.013342598433669868  -0.3913205376086487 
N  1.124271563057609  1.678127960705024  1.1267562259864795e-15 
C  0.9148010146860761  2.774357225145105  0.8847810741364833 
C  1.0384762224893178  2.5638517849928615  2.2655842616477337 
C  0.7703943208095181  3.6026476371682974  3.1519313559030637 
H  0.8568315933379829  3.4468795008158235  4.08604446769151 
C  0.3793115176501597  4.8617479736601  2.710306352399802 
C  0.28935812516355863  5.060723944395798  1.341913261855267 
H  0.04548430770851897  5.921789809952873  1.0215830005118283 
C  0.54362168352174  4.0455491842515965  0.41234074222206524 
C  1.4465052733791048  1.2084209696667227  2.775755260915924 
H  0.7946489380876508  0.5389133181000433  2.4836383619968765 
H  1.4831214768503442  1.224830403657938  3.755164789213186 
H  2.3309259549534564  0.9793870556864529  2.421126251597085 
C  0.04331188781237594  5.969929875485223  3.684128462035914 
H  0.15040166508658936  6.8369475905042405  3.2410515483442293 
H  0.645622906060977  5.920116147356361  4.4551412309225755 
H  -0.8836177901465792  5.868603600623223  3.9857806759205805 
C  0.37954558702727137  4.344852522114451  -1.0526532497462808 
H  -0.4057114156182102  3.871018703347772  -1.3969455557730672 
H  1.1769368813929446  4.0495929640818  -1.5379861221753166 
H  0.25954295451260334  5.309636872838102  -1.1771020536308197 
C  3.503100220788559  2.86122552626009  -0.9308455444035152 
C  3.9911819991141035  3.3485815647450243  0.2931322370201976 
H  3.763072137448579  2.9096163086685327  1.1040156780699455 
C  4.8038182229832485  4.469231136193626  0.3159593189127089 
H  5.134757954455992  4.799560317269372  1.1429586334605506 
C  5.136842080911751  5.1104754990775545  -0.8697656437662654 
H  5.6962474319149825  5.878655143410765  -0.8472928312789825 
C  4.663688516241424  4.643208619935294  -2.0816032392783317 
H  4.894760091405994  5.0882901348670915  -2.8883503013845475 
C  3.8442950497171218  3.5170414209774576  -2.114422090702262 
H  3.516661034982123  3.1943799537479167  -2.946807350034696 
C  1.955441861557044  1.0832763353375399  -2.6242208269675533 
C  2.8909759861051887  0.5028154391429716  -3.4785513893349305 
H  3.731902025882607  0.2171083439590214  -3.138460076029454 
C  2.595180970112218  0.3418358468081247  -4.825477560053054 
H  3.236367172209232  -0.046619303969609  -5.410549094204825 
C  1.3682143836901832  0.7477191292211307  -5.314290056682964 
H  1.1729916029688074  0.6500520181081356  -6.238375778515232 
C  0.42073530347936483  1.297240230468128  -4.463942850038972 
H  -0.4266652932759183  1.5569435815861803  -4.803821075344562 
C  0.7100223985941423  1.4689455930788229  -3.1146032133830426 
H  0.0625652740503082  1.8470507375359995  -2.5307535224415485 
Br  -1.5839191898578664  1.5839191898578664  0.0 
C  -1.2937473829822488  -1.2398794889499034  -0.4598005675376139 
C  -1.601562203225019  -1.4938654694550033  -1.7919791134336869 
H  -1.1309417375171225  -1.0428217585005106  -2.480879663633267 
C  -2.60218398542082  -2.411889969420291  -2.121542410022959 
H  -2.8231586547736818  -2.5626138747145775  -3.03270050271447 
C  -3.2683208079706407  -3.09759503004543  -1.143064365570095 
H  -3.9596020908062854  -3.707191723557817  -1.3683280760515548 
C  -2.9347449854640226  -2.896087320001541  0.14198826503765638 
H  -3.3668350933519986  -3.405606940434718  0.8171022443470677 
C  -1.9675509241539992  -1.9516175659140573  0.5112421903797603 
H  -1.7755298364628027  -1.8022912010877177  1.4301324877763764 

-Ni 0
lanl2dz
F 1 1.0
3.130 1.0
****
-P 0
6-31+g(d)
****
-H 0
6-31g(d,p)
****
-N 0
6-31+g(d)
****
-Br 0
6-31+g(d)
****
-C 0
6-31g(d)
****

-Ni 0
lanl2dz
