%chk=CEFUDEDU_PN_Ni_gaussain.chk
%nprocshared=32
%mem=64GB
#p opt rwb97xd/gen pseudo=read

This Gaussian input file was generated using the DART python program. This file was generated on the 2023-08-13 at 16:51:13

0 1
Ni  0.0  0.0  0.0 
P  2.270204869718712  1.4387890554221052  1.2496558780931895 
P  1.2842648548878068  -1.559090690915701  -3.9512719733954287e-16 
N  1.2842648548878066  1.5590906909157018  -4.1297814734606626e-16 
C  3.3563015436905848  -0.028108837898493343  1.282328731639167 
C  4.618439131391856  0.05521031137030575  1.8608202433113716 
H  4.884077834236447  0.862671966638483  2.284385922778694 
C  5.494213225142289  -1.0180692417371515  1.8308009562267344 
H  6.36133049348587  -0.9371290624805597  2.209467525020859 
C  5.099116621049319  -2.208431820266809  1.245374859208126 
H  5.7015655545918005  -2.941889695208241  1.2044361469676577 
C  3.8327711242919826  -2.326264417222474  0.7237397933458943 
H  3.5536257165148513  -3.161129273118389  0.3687977506025249 
C  2.9474633338618927  -1.2497137747359872  0.7042213311690306 
C  1.7538819558423477  2.187085554014361  -1.2817974295546009 
H  2.553337690666363  2.7449230679367798  -1.0562046634519093 
C  2.213904122870916  1.144990514600232  -2.291483145344835 
H  2.8983824840205576  0.5751638007493471  -1.8842820288190827 
H  2.5883819708979994  1.594306426164401  -3.078178469439422 
H  1.4500021887442647  0.5939077905443447  -2.5626739384863306 
C  0.6780346659864118  3.143586877952181  -1.8213131996807956 
H  -0.17777195929614553  2.6369191070503857  -1.9209502412461203 
C  1.0696847042397686  3.711607622454134  -3.1838443411053325 
H  0.39149629329589675  4.356405064872034  -3.4755991654232274 
H  1.1293163623825475  2.9835433465181977  -3.8365056739978507 
H  1.9381658824123953  4.159804352812126  -3.1141531360913777 
C  0.4540545640305613  4.283338465434452  -0.8445516715893681 
H  0.19509165944187723  3.9199595239135743  0.02772370288028899 
H  -0.2601353666065356  4.86518175093775  -1.1804284259075577 
H  1.2800730412032242  4.800741420054243  -0.7514874576289322 
C  3.3880165166319998  2.8571395323281115  1.376563823807869 
C  4.555551585197103  2.9324086656016064  0.6045399891712666 
H  4.773906612455913  2.230303690965987  0.002076632059209553 
C  5.390521263981411  4.0332380977829825  0.7214585794554003 
H  6.1753267093651  4.088662772885909  0.189637727771436 
C  5.08458562352108  5.053228476960984  1.6103515540482163 
H  5.679512399328402  5.787067744084065  1.7148016447889765 
C  3.921911283858533  5.001596262447072  2.3408034103088915 
H  3.700583910980093  5.717171287364159  2.925270575964632 
C  3.0714050431435376  3.9159084606644625  2.2325315692544927 
H  2.2699252773146  3.8895665902144008  2.7412613509932977 
C  1.3062938181400856  1.4096180519230792  2.765732319833357 
C  0.17104500910183762  2.2318249911788737  2.8624383724715963 
H  -0.15409193624196882  2.6870872983273544  2.094397840688059 
C  -0.47635648866594416  2.379387519991664  4.082227334045866 
H  -1.2264286374252347  2.9584442581662436  4.151330124367415 
C  -0.037108486683608  1.6881967981953097  5.198721865540399 
H  -0.4856826781252943  1.7906696376079834  6.030187338037704 
C  1.062263696022649  0.845079526275767  5.096622699615148 
H  1.3509232090396304  0.35486210374013166  5.857632097840513 
C  1.7437456485124259  0.7104750281392656  3.8950090522591774 
H  2.5044596909665824  0.14549297473309467  3.840387399574448 
C  1.571453188334829  -2.1600935193333726  -1.688141703579995 
C  0.45154708833501656  -2.5360818973126595  -2.434822710977229 
H  -0.41267616307446864  -2.5120551808308895  -2.0420128605172887 
C  0.6063594005152984  -2.9467395990939207  -3.754662280760289 
H  -0.15665655597021577  -3.19157818175251  -4.2647174724701955 
C  1.8581226729689233  -2.9999732983800436  -4.3306021239700785 
H  1.956406676219014  -3.2970278717275296  -5.227289853984555 
C  2.9622022904221925  -2.6254491007805787  -3.6083880049328374 
H  3.8224914663124685  -2.6601178825999683  -4.010459577433431 
C  2.83275680972977  -2.194621716001896  -2.290391733294275 
H  3.6004270940320864  -1.924804955212356  -1.800616774567059 
C  0.8140838296636332  -3.032886370915845  0.9743271868998004 
C  0.3366882099106161  -2.833880622367779  2.264475842786211 
H  0.18506140752007272  -1.9525260526775814  2.5838277259543383 
C  0.08131359450260289  -3.9274982835691126  3.0881427153225265 
H  -0.25258273200240877  -3.789673042707855  3.9671863866653925 
C  0.3079011262274367  -5.201700917562912  2.63851091263269 
H  0.13988543839230028  -5.940896361237275  3.210673690775719 
C  0.781298014706016  -5.4137619329524735  1.3546630627179055 
H  0.9388590922110979  -6.298756986825582  1.0473528261887972 
C  1.0292945028970326  -4.328764318730005  0.5090608755302909 
H  1.3409770966219496  -4.473829911333318  -0.376817075776535 
Br  -1.5839191898578664  1.5839191898578664  0.0 
C  -1.2937473829822488  -1.2398794889499034  -0.4598005675376139 
C  -1.601562203225019  -1.4938654694550033  -1.7919791134336869 
H  -1.1309417375171225  -1.0428217585005106  -2.480879663633267 
C  -2.60218398542082  -2.411889969420291  -2.121542410022959 
H  -2.8231586547736818  -2.5626138747145775  -3.03270050271447 
C  -3.2683208079706407  -3.09759503004543  -1.143064365570095 
H  -3.9596020908062854  -3.707191723557817  -1.3683280760515548 
C  -2.9347449854640226  -2.896087320001541  0.14198826503765638 
H  -3.3668350933519986  -3.405606940434718  0.8171022443470677 
C  -1.9675509241539992  -1.9516175659140573  0.5112421903797603 
H  -1.7755298364628027  -1.8022912010877177  1.4301324877763764 

-Ni 0
lanl2dz
F 1 1.0
3.130 1.0
****
-C 0
6-31g(d)
****
-N 0
6-31+g(d)
****
-H 0
6-31g(d,p)
****
-Br 0
6-31+g(d)
****
-P 0
6-31+g(d)
****

-Ni 0
lanl2dz


