%chk=ATORAMEN_PN_Pd_gaussain.chk
%nprocshared=32
%mem=64GB
#p opt rwb97xd/gen pseudo=read

This Gaussian input file was generated using the DART python program. This file was generated on the 2023-10-04 at 16:41:16

0 1
Pd  0.0  0.0  0.0 
P  1.5828346202304266  -1.409515720025853  -4.680245495376471e-17 
C  2.9411784144476325  -0.43128923740477954  -0.7601158434149807 
H  3.8016590441079456  -0.7736307119582874  -0.47256509871081404 
H  2.8942265002074388  -0.4900118957079316  -1.7283037679167261 
C  2.7729181126876523  1.0086132171508688  -0.313741412901465 
N  1.5828346202304269  1.409515720025853  4.942871343727752e-17 
C  4.035513488464611  1.8253386879238267  -0.29674104651365396 
H  4.798010437971529  1.2264866864828514  -0.33068323799862825 
H  4.082682767749025  2.317247628809766  0.536205400125184 
P  4.150223477212796  3.037882904861436  -1.7290782800074156 
N  1.5568189100285554  -2.825693111054445  -0.8841926034310383 
N  1.9753586366979539  -1.7449740858192675  1.5646800220222166 
N  4.724496826195778  2.0724717493370135  -2.9905507614500233 
N  5.374739652920165  4.032871304121203  -1.1059952271408056 
C  1.3912359267990362  2.812546106209645  0.5185648041666043 
H  2.2785604326678612  3.1859926151924216  0.6979736562705228 
C  0.7372631518836135  3.6778090668651173  -0.5224626059370753 
H  1.2701221995035719  3.6729079260677158  -1.3222773058447788 
H  0.664657145762289  4.57531130258108  -0.1917296399963364 
H  -0.13722226823259787  3.335380573062192  -0.718440121576104 
C  0.6469360978279268  2.7304366707803776  1.8442697355925668 
H  1.130194106237232  2.1618233530195092  2.448547471549523 
H  -0.23020771526423212  2.369061797294995  1.6986879305221194 
H  0.5715937731520759  3.60894460609967  2.2252905640172833 
C  1.3601691368262758  -2.6259348635942197  -2.3701578955126217 
H  1.2387110831373829  -1.6567155171260997  -2.4543596153645035 
C  0.15579352403187152  -3.1666104156100716  -2.970713530536092 
H  -0.5998280790656925  -2.9555211806531587  -2.417558563264198 
H  0.23762700513556378  -4.11946873844975  -3.049947853689647 
H  0.031657331011010426  -2.782776136706055  -3.8409211792732187 
C  2.6452201144992085  -2.888933970119402  -3.147688959039242 
H  3.388353445833181  -2.497400355304609  -2.6811221681822963 
H  2.575956665880612  -2.497165455476748  -4.021292167378244 
H  2.781763821376437  -3.8357304130675662  -3.231038474532293 
C  1.536093663955773  -4.138662830871441  -0.2516966832711531 
H  1.6886050250053413  -3.9659677508935225  0.7017721961906996 
C  0.1933568294185093  -4.883493778894317  -0.31496738774191263 
H  -0.5125142755480276  -4.2957329804657585  -0.036339379451330284 
H  0.22231078905129764  -5.6474792844836035  0.2644075474003251 
H  0.02998774537070248  -5.171069230690316  -1.2169634586323186 
C  2.694575035766161  -5.022445386327545  -0.6861396321606767 
H  3.513689749469882  -4.5254410996444925  -0.631959609894634 
H  2.554404425670854  -5.312079970887206  -1.5895180121833972 
H  2.7452886365961398  -5.788133646959506  -0.10874929779295707 
C  0.9531376542708664  -1.5251273962099343  2.6321255082900725 
H  0.3013270485954558  -0.9094807434829366  2.2373154484953544 
C  0.1712743360359894  -2.779353131250033  2.9377456273298557 
H  -0.12655037246966305  -3.1783476703032654  2.116759938776618 
H  -0.5895999390328266  -2.5577616295998986  3.479644403795534 
H  0.7328227261353122  -3.3975301530600617  3.410674760798013 
C  1.4522652934334035  -0.8382918354243878  3.822332453432174 
H  1.9381732077610785  -0.05385797683661742  3.5592282339775503 
H  2.034650706285977  -1.4260187498746966  4.310255567177849 
H  0.7125044897310209  -0.5845405328185261  4.379842076426668 
C  3.3690349162204742  -2.2249834928712082  1.8398760376872583 
H  3.7470832251076125  -2.5024292314634873  0.9808507189191912 
C  3.4211295460235114  -3.4632370293184542  2.771913820731261 
H  2.845188522935536  -4.14933959366748  2.4241938053193324 
H  3.1285168962658787  -3.216083609849243  3.651189906182529 
H  4.321174201058927  -3.7947392171702012  2.8140964995427358 
C  4.292765795831996  -1.1245867197358586  2.3964546518339596 
H  4.261358298242827  -0.3585775722960578  1.81962235806587 
H  5.194826130031386  -1.455427978456582  2.4384635198526103 
H  4.002355346804289  -0.875040403932053  3.2761361495161037 
C  5.9787831484366585  1.349371477719394  -2.980995709067633 
H  6.333203666826925  1.4001566651302062  -2.067971486561113 
C  5.821907218927701  -0.1375496897590067  -3.320278768540634 
H  5.168785237050579  -0.5304112074651325  -2.7362988761688527 
H  6.663781618763207  -0.5837210066624201  -3.202731029837272 
H  5.534394784753598  -0.23071375180833983  -4.231198412492719 
C  7.004195169143677  1.9887402035846637  -3.8879643525029457 
H  7.091501583658703  2.9181461842259955  -3.6653475222033065 
H  6.720910120554078  1.9027478387760073  -4.800488979261135 
H  7.850254894001027  1.5496729330269092  -3.7719611460848466 
C  3.9800748643260118  2.094494962387402  -4.27194446003488 
H  4.491679747506417  1.528051155726377  -4.885703294921486 
C  2.6354769663151485  1.4590531171672776  -4.164298633325187 
H  2.721016005486705  0.6001265562220813  -3.7462597288193225 
H  2.2628348634874618  1.3521070981493175  -5.041520693134677 
H  2.0600007607862802  2.0168577864089783  -3.636575601951477 
C  3.9235591938871384  3.4606176190149416  -4.9264906891461395 
H  4.808785906610901  3.8295592403190746  -4.974259268251673 
H  3.362297300693129  4.04113667486839  -4.4067988448390105 
H  3.565677718784139  3.3755763149010725  -5.813262478488071 
C  6.54448848863716  3.632939698541336  -0.2994750772393253 
H  6.564334885251861  2.652779147387881  -0.2980522265912985 
C  6.461190294987319  4.071145375302906  1.1531416429552055 
H  5.632458179014707  3.7702477734001616  1.5312536675256305 
H  6.506761577601047  5.028481778741702  1.202957893835837 
H  7.192645444469547  3.6895294434209007  1.6449282377600718 
C  7.858871689557338  4.098569113435668  -0.9242183518121502 
H  7.894935020325038  3.815413796804876  -1.8409824396982757 
H  8.596084799831097  3.7173684199165176  -0.44169099372660403 
H  7.910111005915436  5.056343028844883  -0.8836989808784774 
C  5.183787416048061  5.503067290982555  -1.1910479957630842 
H  5.942663819519426  5.916936641080545  -0.7318724571029218 
C  5.202998240037847  6.005853052738374  -2.601094988603151 
H  6.001171460799308  5.70159262562364  -3.039004787707052 
H  5.184044461826509  6.966104521218041  -2.599694426515806 
H  4.434247350247721  5.673202991913653  -3.069381595800319 
C  3.920457206016553  5.976138942845912  -0.4771196361743341 
H  3.9204592046273854  5.647439909257622  0.4249950102615426 
H  3.1470356522174754  5.643301008983497  -0.9386099501585103 
H  3.89840358416144  6.935891537854349  -0.4683432965250385 
Br  -1.654629867976521  1.654629867976521  0.0 
C  -1.352040782177733  -1.3199206589279684  -0.4819701001757076 
C  -1.6380700204479186  -1.599217458033982  -1.8139382277462257 
H  -1.1579680913617836  -1.159339363685303  -2.503515938957912 
C  -2.63068216563725  -2.52632649780156  -2.142289956238523 
H  -2.8368222554424674  -2.694399528648736  -3.0538898079700485 
C  -3.3101544432602585  -3.1961573187854975  -1.1619874135498987 
H  -3.9960123560788676  -3.811990145619169  -1.3868663427944008 
C  -2.9974710358883443  -2.9701089012107795  0.12423560353005347 
H  -3.438659168087169  -3.468581175155742  0.8017084178296768 
C  -2.0389854250767776  -2.015940632791841  0.4912562833419403 
H  -1.8619130127668426  -1.8492165108145995  1.4101568590026907 

-Pd 0
lanl2dz
F 1 1.0
1.472 1.0
****
-H 0
6-31g(d,p)
****
-P 0
6-31+g(d)
****
-N 0
6-31+g(d)
****
-C 0
6-31g(d)
****
-Br 0
6-31+g(d)
****

-Pd 0
lanl2dz


