%chk=IDUZOCEW_PN_Ni_gaussain.chk
%nprocshared=32
%mem=64GB
#p opt rwb97xd/gen pseudo=read

This Gaussian input file was generated using the DART python program. This file was generated on the 2023-10-04 at 16:41:16

0 1
Ni  0.0  0.0  0.0 
C  2.5094547363437565  0.3030658105118835  0.2174025604175028 
C  1.962889154507377  2.535450598656002  0.022936721734699236 
H  1.3156144655882211  3.213378850285834  -0.13294904646350628 
C  3.2769390804233014  2.906674905609528  0.27050690598000277 
H  3.5245517738387804  3.8234060447349703  0.27978228291605206 
C  4.210582190128728  1.9313060796820287  0.5010333623974801 
H  5.1167173908320445  2.163405974686794  0.6722340831469905 
C  3.817701289610561  0.5965534326720108  0.47838873151534417 
H  4.446157793706848  -0.09721462128044456  0.6427336120991642 
C  2.0729408432064633  -2.3267531050551487  1.3747011832560496 
C  2.1509939291036213  -1.7565530347554876  2.643813509101249 
H  1.9784497905944067  -0.8293293041564546  2.758407460425581 
C  2.4817317495202804  -2.541883565984093  3.7381215922598585 
H  2.5328782225431596  -2.152835679983802  4.603364310054136 
C  2.733218661149481  -3.8838260545634364  3.56997906157625 
H  2.9773907550523004  -4.417129377559549  4.319609293250789 
C  2.634529748059723  -4.4558142226207105  2.326948440861013 
H  2.7896879240440695  -5.385932460939117  2.2194000648961785 
C  2.3070533081450506  -3.6801999203929396  1.2298965845294552 
H  2.2433603405837426  -4.081754288803508  0.3721460875353455 
C  2.2533349526805715  -1.9900118306288723  -1.519860795587206 
C  3.526801668465404  -2.5687035579488295  -1.5707101664745957 
H  4.048903129008734  -2.65279877667842  -0.7815706166576055 
C  4.0173033571828665  -3.0199150936354684  -2.790203374093495 
H  4.88138210868346  -3.412532266876113  -2.8348871125422455 
C  3.260843892946415  -2.9020686716463056  -3.9398665464146516 
H  3.601535780170975  -3.2204313031918588  -4.767146990287689 
C  2.019518211055958  -2.3283989113749266  -3.8865465911503283 
H  1.5069345633230504  -2.238054070060368  -4.681193722728064 
C  1.5025086344429188  -1.8803004472732754  -2.684155741983477 
H  0.6336048526317227  -1.4966103584686499  -2.652315143570344 
N  1.577542581834164  1.2615305792964358  0.0 
P  1.577542581834164  -1.2615305792964358  0.0 
Br  -1.5839191898578664  1.5839191898578664  0.0 
C  -1.2937473829822488  -1.2398794889499034  -0.4598005675376139 
C  -1.601562203225019  -1.4938654694550033  -1.7919791134336869 
H  -1.1309417375171225  -1.0428217585005106  -2.480879663633267 
C  -2.60218398542082  -2.411889969420291  -2.121542410022959 
H  -2.8231586547736818  -2.5626138747145775  -3.03270050271447 
C  -3.2683208079706407  -3.09759503004543  -1.143064365570095 
H  -3.9596020908062854  -3.707191723557817  -1.3683280760515548 
C  -2.9347449854640226  -2.896087320001541  0.14198826503765638 
H  -3.3668350933519986  -3.405606940434718  0.8171022443470677 
C  -1.9675509241539992  -1.9516175659140573  0.5112421903797603 
H  -1.7755298364628027  -1.8022912010877177  1.4301324877763764 

-Ni 0
lanl2dz
F 1 1.0
3.130 1.0
****
-H 0
6-31g(d,p)
****
-P 0
6-31+g(d)
****
-N 0
6-31+g(d)
****
-C 0
6-31g(d)
****
-Br 0
6-31+g(d)
****

-Ni 0
lanl2dz


