%chk=JUFOKITI_PN_Pd_gaussain.chk
%nprocshared=32
%mem=64GB
#p opt rwb97xd/gen pseudo=read

This Gaussian input file was generated using the DART python program. This file was generated on the 2023-08-13 at 16:51:13

0 1
Pd  0.0  0.0  0.0 
P  1.5720736043519077  1.4215078552368257  -7.437194973201012e-16 
N  1.5720736043519083  -1.4215078552368257  -1.1102230246251565e-15 
C  2.8433449079276985  -0.9620799156766913  -0.007514722634161641 
C  1.6314105730020618  2.9781408044310114  -1.0126675839753336 
C  3.0335732355940577  0.447474845219219  -0.48246324551737513 
H  3.1374553038261253  0.46178097791140327  -1.4475608263180135 
H  3.832007186514055  0.8277757440207487  -0.08434503142885652 
C  1.1872923768733723  2.6404097512881384  -2.432161093509782 
H  1.7911263719178792  1.9959438226440975  -2.8102646947166185 
H  1.1931830933160363  3.436640504308799  -2.9667526080364732 
H  0.3008363889354819  2.273840039358416  -2.410927682459774 
C  0.7075696047992943  2.3481033117076278  2.476479282127194 
H  -0.09687702642724338  2.524725188312151  2.045373192848711 
C  3.0850407494430536  3.4847392184651182  -0.9959171500009267 
H  3.3874184331720105  3.55902349316046  -0.08771151639380415 
H  3.128489178210015  4.345936548814059  -1.4185813574251336 
H  3.645297441946963  2.866822668258183  -1.470439210062322 
C  0.8388752743538945  2.6045462983974677  3.829132358758632 
H  0.12092753541854373  2.9457555067835814  4.309898684815431 
C  1.7786118519529723  1.8255357949236688  1.759793643081584 
C  2.96328953383645  1.5518215318848785  2.434058192243355 
H  3.6856184382252613  1.1892239119694221  1.9740293019374089 
C  1.3513256731637746  -2.6913588225389153  0.3881708537720347 
H  0.4825424398081377  -3.021056261968062  0.4069754243335555 
C  3.901508983660383  -1.7424002571462067  0.39444652365421573 
H  4.765936399923344  -1.3986883999095114  0.3909678446155598 
C  2.032835506646396  2.3534882274306055  4.45969437688729 
H  2.1272227404863946  2.5544834375150387  5.363192398806068 
C  3.0697620280534665  1.8185482746202062  3.783193064183547 
H  3.863267537207351  1.626538533700043  4.230366371005682 
C  0.7233727226987394  4.04795900093098  -0.4159392296514383 
H  -0.16927850852309478  3.704723345776113  -0.3401725190947982 
H  0.72312592244236  4.82106216103762  -0.9844044114548336 
H  1.0474093763246954  4.2918388210268335  0.4550992140793335 
C  2.3986533112502086  -3.513568774242122  0.7595229155954832 
H  2.2318010231363488  -4.400561238163425  0.9838697294752196 
C  3.6680841313791914  -3.0328117545166515  0.7991851254599767 
H  4.367273984174708  -3.5696478945271917  1.0972871357288863 
Br  -1.654629867976521  1.654629867976521  0.0 
C  -1.352040782177733  -1.3199206589279684  -0.4819701001757076 
C  -1.6380700204479186  -1.599217458033982  -1.8139382277462257 
H  -1.1579680913617836  -1.159339363685303  -2.503515938957912 
C  -2.63068216563725  -2.52632649780156  -2.142289956238523 
H  -2.8368222554424674  -2.694399528648736  -3.0538898079700485 
C  -3.3101544432602585  -3.1961573187854975  -1.1619874135498987 
H  -3.9960123560788676  -3.811990145619169  -1.3868663427944008 
C  -2.9974710358883443  -2.9701089012107795  0.12423560353005347 
H  -3.438659168087169  -3.468581175155742  0.8017084178296768 
C  -2.0389854250767776  -2.015940632791841  0.4912562833419403 
H  -1.8619130127668426  -1.8492165108145995  1.4101568590026907 

-Pd 0
lanl2dz
F 1 1.0
1.472 1.0
****
-C 0
6-31g(d)
****
-N 0
6-31+g(d)
****
-H 0
6-31g(d,p)
****
-Br 0
6-31+g(d)
****
-P 0
6-31+g(d)
****

-Pd 0
lanl2dz


