%chk=ASIGOFOV_PN_Ni_gaussain.chk
%nprocshared=32
%mem=64GB
#p opt rwb97xd/gen pseudo=read

This Gaussian input file was generated using the DART python program. This file was generated on the 2023-10-04 at 09:55:46

0 1
Ni  0.0  0.0  0.0 
P  1.3908245171480125  -1.464823252989929  -1.1937799511485521e-15 
N  1.3908245171480123  1.464823252989929  -4.014337157341043e-16 
C  0.9680206920992527  2.2719338600797587  1.0091041985083886 
C  1.8324868222902235  2.914320921508028  1.8660577287900693 
C  3.2253750961400796  2.7065873062893373  1.7244448350276171 
C  4.197744728871861  3.2595634201970336  2.5955467434106905 
C  5.509118324417887  3.0078837897382087  2.4336470321173223 
C  5.946257094596218  2.1882534674113603  1.3977955705991272 
C  5.057598050165476  1.6256203454167664  0.522908216257919 
C  3.652131909457988  1.871272443214583  0.6670757027879881 
C  2.7018833293054274  1.2812129099324872  -0.20073697463784093 
C  3.10017914415484  0.3352281795757209  -1.2659802444148995 
C  2.745277754511558  -1.0052667306409304  -1.1491786634644654 
C  3.332234356812693  -1.9504915263108817  -2.0212777648662716 
C  4.18092035915085  -1.5607612610145498  -3.026964763761759 
C  4.422217889953302  -0.1828944870674047  -3.2807426092903462 
C  5.1128704935141975  0.2546888006716842  -4.425088517434385 
C  5.20851915594443  1.5892794900327847  -4.70455288948559 
C  4.640252743225112  2.5160676825529187  -3.8513606248814365 
C  4.016966930997759  2.165144863741321  -2.6883318756608783 
C  3.8616246716800715  0.769482287504177  -2.378246120165441 
C  1.137829193586909  -3.218359684608591  -0.35816701305719073 
C  1.506128754296607  -4.223800632513944  0.5174746681436596 
C  1.3292921896883494  -5.568731552322017  0.1713188645497188 
C  0.7883833086231616  -5.886815992918486  -1.0428357388823468 
C  0.435430794934175  -4.897952430680949  -1.9507673323185146 
C  0.5696196922971102  -3.556657372734796  -1.5883703161142548 
C  2.090236017763125  -1.3286832855276784  1.6683221697462278 
C  1.3301524493880557  -0.7962936450654624  2.6776817834690902 
C  1.8602435357453442  -0.6539972386051325  3.954355442973778 
C  3.1619074679051398  -1.023319796050715  4.197242137290712 
C  3.9080897498600606  -1.5644187364055666  3.1899591389017576 
C  3.4128671022060697  -1.7169627136696544  1.9085696258140687 
H  0.02780701520514839  2.4308122466188613  1.1160136932785671 
H  1.5169539319388488  3.5037462622361044  2.5557468347023584 
H  3.9119875995732696  3.830260177156384  3.310083267775377 
H  6.137784244864266  3.387668196399197  3.0507190983514723 
H  6.889123251746858  2.04244783211437  1.2828862306147775 
H  5.371674071014609  1.0462299628107679  -0.17343349416251044 
H  3.16478111917319  -2.883006525790748  -1.862740075501514 
H  4.610109870555519  -2.228888523469147  -3.5676495744094594 
H  5.50301747196751  -0.4024141249101609  -5.006174251552463 
H  5.680707489232212  1.8989289027343987  -5.481030415960416 
H  4.697704418582907  3.451982696327912  -4.063471779678011 
H  3.680612455159689  2.8527197523459344  -2.111284226723584 
H  1.8390509376049096  -3.99825642482497  1.3887668810316183 
H  1.6066232109199725  -6.267020508284565  0.7690463347594878 
H  0.6685186971916789  -6.806029616303844  -1.2925880151665543 
H  0.0861153227006548  -5.112356454756171  -2.8192494940919395 
H  0.2414521883739682  -2.8593736404379673  -2.1621440485585537 
H  0.4198003291887149  -0.5271369128827642  2.5309724423578004 
H  1.3455499864633715  -0.26688200211325375  4.6647037758382925 
H  3.529941957974429  -0.8890850106602939  5.0732993594575495 
H  4.789625147283688  -1.8724841593696722  3.41755636705521 
H  3.983582236201581  -2.064004535242578  1.2186311793510065 
Br  -1.5839191898578664  1.5839191898578664  0.0 
C  -1.2937473829822488  -1.2398794889499034  -0.4598005675376139 
C  -1.601562203225019  -1.4938654694550033  -1.7919791134336869 
H  -1.1309417375171225  -1.0428217585005106  -2.480879663633267 
C  -2.60218398542082  -2.411889969420291  -2.121542410022959 
H  -2.8231586547736818  -2.5626138747145775  -3.03270050271447 
C  -3.2683208079706407  -3.09759503004543  -1.143064365570095 
H  -3.9596020908062854  -3.707191723557817  -1.3683280760515548 
C  -2.9347449854640226  -2.896087320001541  0.14198826503765638 
H  -3.3668350933519986  -3.405606940434718  0.8171022443470677 
C  -1.9675509241539992  -1.9516175659140573  0.5112421903797603 
H  -1.7755298364628027  -1.8022912010877177  1.4301324877763764 

-Ni 0
lanl2dz
F 1 1.0
3.130 1.0
****
-P 0
6-31+g(d)
****
-N 0
6-31+g(d)
****
-C 0
6-31g(d)
****
-H 0
6-31g(d,p)
****
-Br 0
6-31+g(d)
****

-Ni 0
lanl2dz


