%chk=YAWOWAHE_PN_Ni_gaussain.chk
%nprocshared=32
%mem=64GB
#p opt rwb97xd/gen pseudo=read

This Gaussian input file was generated using the DART python program. This file was generated on the 2023-10-04 at 16:41:16

0 1
Ni  0.0  0.0  0.0 
N  1.3647190333544847  1.4891749259237481  2.7692034697719785e-15 
C  1.3561579862224455  2.0946311583006882  -1.3625637156287247 
H  2.0992210057482414  2.7275537677216994  -1.4429374022239871 
H  0.5078702407053672  2.5657566438206625  -1.5041557270528636 
H  1.4543053541249922  1.3884273526277933  -2.034221172244034 
C  1.212596400162362  2.5809961563889554  1.0073845368955032 
H  0.39385449950127194  3.085674127335723  0.8200977361247532 
H  1.9850592776735203  3.181723004811466  0.9583664131905552 
H  1.157634155174473  2.1916151173278053  1.9050821296546454 
C  2.6839636773907642  0.8342063772188504  0.2504312867615226 
H  2.7875820109570553  0.6727662295136567  1.220599081350629 
H  3.40847100514552  1.4455442020450904  -0.03519286481955593 
C  2.8176387253937616  -0.47917061157698915  -0.49249937409653083 
H  3.658547303762955  -0.9366694910839658  -0.24145324671154728 
H  2.819218746394758  -0.3277737567983954  -1.470746058679114 
P  1.3647190333544847  -1.4891749259237481  -1.3877787807814457e-17 
C  1.8634363447623974  -2.245868394490583  1.5759621340407923 
C  1.1566204754630194  -1.941705577809373  2.740600755182662 
H  0.3779470641057482  -1.4002269469495294  2.6920643691675847 
C  1.5838175768555804  -2.4266534421793238  3.9704399541858546 
H  1.1003767639056763  -2.2106408741457475  4.759543959261164 
C  2.7003191451698942  -3.2133554068751673  4.047930319363872 
H  2.9918553060776087  -3.539195744066586  4.890919193277533 
C  3.4129997131224927  -3.5399690581883534  2.8887821748893745 
H  4.179959485619552  -4.098355709430276  2.9417185053827195 
C  2.9944327332042873  -3.0470482285251324  1.6702947523008822 
H  3.486916156918781  -3.2578890737033683  0.8851079494501173 
C  1.2626973266233588  -2.8145479131003146  -1.238949476862699 
C  1.3988930518110902  -4.177726532791864  -0.9499990914045247 
H  1.4981557198147522  -4.468009354826254  -0.050242470993999616 
C  1.3867242153557622  -5.109549810127286  -1.991275485660737 
H  1.4916258329324514  -6.035055428041893  -1.8019658666808933 
C  1.2229561081740368  -4.689383455518627  -3.285437083578517 
H  1.238652970186369  -5.328137092476322  -3.9883759854727354 
C  1.0331786747005398  -3.3462204159185234  -3.5889173379550123 
H  0.8889777095032224  -3.0717636325782642  -4.485950735167553 
C  1.0601629826394119  -2.4118827395458786  -2.5657646740599067 
H  0.9399337188982667  -1.4914057182518805  -2.7660212779709705 
Br  -1.5839191898578664  1.5839191898578664  0.0 
C  -1.2937473829822488  -1.2398794889499034  -0.4598005675376139 
C  -1.601562203225019  -1.4938654694550033  -1.7919791134336869 
H  -1.1309417375171225  -1.0428217585005106  -2.480879663633267 
C  -2.60218398542082  -2.411889969420291  -2.121542410022959 
H  -2.8231586547736818  -2.5626138747145775  -3.03270050271447 
C  -3.2683208079706407  -3.09759503004543  -1.143064365570095 
H  -3.9596020908062854  -3.707191723557817  -1.3683280760515548 
C  -2.9347449854640226  -2.896087320001541  0.14198826503765638 
H  -3.3668350933519986  -3.405606940434718  0.8171022443470677 
C  -1.9675509241539992  -1.9516175659140573  0.5112421903797603 
H  -1.7755298364628027  -1.8022912010877177  1.4301324877763764 

-Ni 0
lanl2dz
F 1 1.0
3.130 1.0
****
-H 0
6-31g(d,p)
****
-P 0
6-31+g(d)
****
-N 0
6-31+g(d)
****
-C 0
6-31g(d)
****
-Br 0
6-31+g(d)
****

-Ni 0
lanl2dz


