%chk=OGOPOKOY_PN_Ni_gaussain.chk
%nprocshared=32
%mem=64GB
#p opt rwb97xd/gen pseudo=read

This Gaussian input file was generated using the DART python program. This file was generated on the 2023-10-04 at 09:55:46

0 1
Ni  0.0  0.0  0.0 
P  1.4457607409249975  1.410629604113  2.0489994251199103e-16 
N  1.445760740924998  -1.4106296041130004  -3.3306690738754696e-16 
C  1.5167710137370447  -2.6954351084889145  -0.3280385603561158 
H  1.0052122508360963  -3.003929541564161  -1.0654764742586056 
C  2.31218490534736  -3.616456541905481  0.36439690972080596 
H  2.3485220363088573  -4.523999227999177  0.08391798746224138 
C  3.0341081233404306  -3.202524693107259  1.4421046539042983 
H  3.5236653016571555  -3.829660375940362  1.9608537786997466 
C  3.046777407697028  -1.8326928574745163  1.7800570785456 
C  3.8368979525833993  -1.2797353286337168  2.8280815800944583 
H  4.328570471825369  -1.8592222312313724  3.3975594844419894 
C  3.9000668023232006  0.06669891212098888  3.0275996287663793 
H  4.427959422790094  0.4146908148633597  3.737056031149464 
C  3.1866351820476284  0.9483260638366959  2.1870635923297277 
H  3.2667015657972476  1.8885461018487113  2.3035439096109873 
C  2.374353831301516  0.4421561961987832  1.1992107073688318 
C  2.27670745244794  -0.9545191282488774  1.0043940941763059 
C  2.679984115105344  2.2616622752689866  -1.0139528762482142 
H  3.225725922246458  1.5995157576596932  -1.4868445225650633 
H  3.2548595413360237  2.808485649562929  -0.4391171330642262 
H  2.226276777347631  2.8375833658453047  -1.6648260506026409 
C  0.6214924231537949  2.697139198629224  0.9692382903787774 
H  1.2764796507269962  3.1377475469779172  1.5496827365417354 
H  -0.08134874229556122  2.292634459513959  1.5178126173237279 
H  0.22419597680305325  3.358050835023122  0.3632908152654447 
Br  -1.5839191898578664  1.5839191898578664  0.0 
C  -1.2937473829822488  -1.2398794889499034  -0.4598005675376139 
C  -1.601562203225019  -1.4938654694550033  -1.7919791134336869 
H  -1.1309417375171225  -1.0428217585005106  -2.480879663633267 
C  -2.60218398542082  -2.411889969420291  -2.121542410022959 
H  -2.8231586547736818  -2.5626138747145775  -3.03270050271447 
C  -3.2683208079706407  -3.09759503004543  -1.143064365570095 
H  -3.9596020908062854  -3.707191723557817  -1.3683280760515548 
C  -2.9347449854640226  -2.896087320001541  0.14198826503765638 
H  -3.3668350933519986  -3.405606940434718  0.8171022443470677 
C  -1.9675509241539992  -1.9516175659140573  0.5112421903797603 
H  -1.7755298364628027  -1.8022912010877177  1.4301324877763764 

-Ni 0
lanl2dz
F 1 1.0
3.130 1.0
****
-P 0
6-31+g(d)
****
-N 0
6-31+g(d)
****
-C 0
6-31g(d)
****
-H 0
6-31g(d,p)
****
-Br 0
6-31+g(d)
****

-Ni 0
lanl2dz


