%chk=OHURICOY_PN_Ni_gaussain.chk
%nprocshared=32
%mem=64GB
#p opt rwb97xd/gen pseudo=read

This Gaussian input file was generated using the DART python program. This file was generated on the 2023-10-04 at 16:41:16

0 1
Ni  0.0  0.0  0.0 
P  1.3642370019538357  -1.4896165286744105  4.064384190812268e-15 
N  1.3642370019538403  1.48961652867441  -6.265146212298734e-16 
C  0.9676509306587953  2.5181091141879177  0.9917339106829668 
C  0.3748345138743907  1.9418308281488197  2.253497229626257 
C  1.5985821102399425  2.115918027779162  -1.3338603309348245 
C  2.6721237653733962  3.1513714953723193  -1.4297450593468857 
C  2.6039985093466895  0.8060638455512507  0.4808543066066736 
C  2.8492334021953134  -0.48744477086740773  -0.23432276697736149 
C  1.561869921446431  -2.8749365021553475  -1.120582188064594 
C  1.576246998861065  -2.6051345146883818  -2.4966906384433867 
C  1.7710396574719844  -3.6268503896823145  -3.408990584150228 
C  1.9038723546626866  -4.9025042834337444  -2.940506221642924 
C  1.8437786585759723  -5.173829414579855  -1.5921264713873766 
C  1.6697236663399586  -4.176392704259387  -0.6975426583308147 
C  1.5180826881306888  -2.18214640474796  1.6705455981775506 
C  2.717155675772908  -2.7126424383165593  2.133503078595331 
C  2.8028767030579678  -3.262430191899552  3.412382725587735 
C  1.6634063875372131  -3.296901731394145  4.206307969557187 
C  0.47395518690900884  -2.7863086053385167  3.7632295104228337 
C  0.412447927014692  -2.2305128692796825  2.505441274367523 
H  1.7439686666913616  3.028010129233662  1.2099704511078104 
H  0.3313978008853189  3.0973928146500036  0.573400539754446 
H  0.1397036595472274  2.653257762262569  2.852446408405969 
H  -0.4159356309817692  1.451880508082573  2.0479290611974763 
H  0.9959667059550146  1.372274741955955  2.681326955851303 
H  1.8033942396353697  1.4178677477347215  -1.9431945973128035 
H  0.7660982940840853  2.5192139824330795  -1.6019256379000966 
H  3.4955721349531115  2.7906753634099974  -1.1989402651506884 
H  2.7034735772841163  3.481811911093287  -2.3387936449303695 
H  2.4560353089121914  3.889516037161525  -0.8658450820361714 
H  3.335116779049345  1.3942033251659345  0.33345879030592535 
H  2.5115658383593003  0.6398142402112921  1.4073806527288266 
H  3.6112203851653555  -0.9362469304372449  0.13375549827294175 
H  3.0070792542449856  -0.3413438141375104  -1.1651616184620528 
H  1.431980583441286  -1.7099457400400138  -2.823066861727939 
H  1.8471007778467783  -3.440879178523345  -4.32915842459424 
H  2.037603148784491  -5.613694505619817  -3.572790993379908 
H  1.9121260667585758  -6.081881308447941  -1.2823344123585734 
H  1.6310700718562103  -4.345527924734017  0.22496322069028873 
H  3.4770446048957053  -2.7106789161994937  1.5736822769297267 
H  3.637248069894475  -3.5750968923788133  3.7296337564998194 
H  1.7075101570881324  -3.7716545327941984  5.043189302288531 
H  -0.30596282186016865  -2.7767034219073605  4.333763435837264 
H  -0.4137724476082829  -1.8640011030025958  2.196238237936192 
Br  -1.5839191898578664  1.5839191898578664  0.0 
C  -1.2937473829822488  -1.2398794889499034  -0.4598005675376139 
C  -1.601562203225019  -1.4938654694550033  -1.7919791134336869 
H  -1.1309417375171225  -1.0428217585005106  -2.480879663633267 
C  -2.60218398542082  -2.411889969420291  -2.121542410022959 
H  -2.8231586547736818  -2.5626138747145775  -3.03270050271447 
C  -3.2683208079706407  -3.09759503004543  -1.143064365570095 
H  -3.9596020908062854  -3.707191723557817  -1.3683280760515548 
C  -2.9347449854640226  -2.896087320001541  0.14198826503765638 
H  -3.3668350933519986  -3.405606940434718  0.8171022443470677 
C  -1.9675509241539992  -1.9516175659140573  0.5112421903797603 
H  -1.7755298364628027  -1.8022912010877177  1.4301324877763764 

-Ni 0
lanl2dz
F 1 1.0
3.130 1.0
****
-H 0
6-31g(d,p)
****
-P 0
6-31+g(d)
****
-N 0
6-31+g(d)
****
-C 0
6-31g(d)
****
-Br 0
6-31+g(d)
****

-Ni 0
lanl2dz


