%chk=NOTICIZU_PN_Ni_gaussain.chk
%nprocshared=32
%mem=64GB
#p opt rwb97xd/gen pseudo=read

This Gaussian input file was generated using the DART python program. This file was generated on the 2023-08-11 at 15:55:49

0 0
Ni  0.0  0.0  0.0 
P  1.3397501455495344  -1.5116777260712677  -9.659973281750411e-16 
N  1.3397501455495346  1.5116777260712677  -1.8512712885755274e-16 
N  3.3318743208337342  3.4579285533863584  -0.23306972652761984 
N  3.154974789156391  2.5284586103108335  -1.1649953891271274 
C  3.468013548788845  0.32298456481787263  -0.02766305879235804 
C  3.0135768817977038  -0.9185634633307651  0.4445942963586528 
C  3.852704646817507  -1.7062982790674484  1.2278623884249584 
C  5.134264453968051  -1.2936001826144568  1.5013228094741706 
C  5.5858031869884535  -0.07129719889444118  1.0248322234480922 
C  4.7573676708689  0.7233566577327788  0.28037782338100625 
C  2.5294282448753522  1.2373337783848628  -0.8099102594438435 
C  1.4718745634277375  2.4445964796373385  0.9247733978900414 
C  2.5995617684684067  3.3552870397065537  0.8626876395519971 
C  2.812079434289872  4.340225253931326  1.9211010067547765 
C  3.9066505461199017  5.19344297868544  1.9188975293628348 
C  4.06488387914284  6.122964063613931  2.975949649645386 
C  3.1574984494928025  6.173181910110415  3.9894422988304314 
C  2.099830941016194  5.317545948362428  4.003366108528857 
C  1.8930405956415268  4.386729190443443  2.9625546096314577 
C  0.7319143147994079  3.5281324785813224  2.94929503507807 
C  0.5036575004745562  2.6173051367123663  1.9704979212601712 
C  3.847555642273519  2.696042157141539  -2.3921706931188798 
C  4.128844213186776  1.6018356265612126  -3.206870507964171 
C  4.809799984556115  1.8022788955028588  -4.383762254631988 
C  5.205215361806788  3.0529668578859646  -4.769163643035951 
C  4.933697844517011  4.138682147391144  -3.9433379423342174 
C  4.258191465167277  3.975259917414891  -2.7389833698733566 
C  1.003381942935663  -2.8257950248442114  1.185921294747691 
C  0.6041643915906334  -2.448667985682476  2.465256072290779 
C  0.4953788171460989  -3.462482959977961  3.468092383304226 
C  0.6858310793018535  -4.762801133685926  3.1587997662495346 
C  1.0283349746296935  -5.122368361955304  1.9258699912663928 
C  1.1968400960572407  -4.154497184940274  0.9298859207329988 
C  1.6052219828755232  -2.374621836116652  -1.579056828149261 
C  0.5577427650094181  -2.5939896446652617  -2.4226255525050324 
C  0.7594435201999776  -3.37261742339097  -3.599461738026304 
C  2.0155624133083  -3.8871732785080186  -3.8660097606059334 
C  3.0437896474484  -3.646409021204382  -3.0364125466655203 
C  2.8464244679503636  -2.8862012532519814  -1.8949040554721597 
H  3.53846861336343  -2.5353389822450216  1.5717156969067567 
H  5.709258938099811  -1.843398000407278  2.0203064053308433 
H  6.473116442220618  0.21401061345316666  1.214123399425098 
H  5.073260710227208  1.5647281505214718  -0.03022392936275328 
H  2.264009795379402  0.7959181555363315  -1.6083031856226895 
H  4.542881317030327  5.1547128849688635  1.2139980145471074 
H  4.808408065847898  6.715045202711036  2.9782406123413425 
H  3.2646328895407413  6.806692104435293  4.687906360498649 
H  1.488094452942565  5.34606983560132  4.7281832903175784 
H  0.10336626972678675  3.603830226868847  3.656807639870103 
H  -0.2923017670656334  2.0978078447591635  1.9771656097798833 
H  3.854085481992477  0.7280505087286792  -2.9531125376718492 
H  5.00842974257286  1.058729965982541  -4.941013632951855 
H  5.663206815860619  3.179985025639894  -5.59343932693917 
H  5.215786483599057  5.006682609639232  -4.206161242743363 
H  4.085787325025177  4.716563748696697  -2.173124639986827 
H  0.4099734678469831  -1.5408103012494798  2.6689943110962293 
H  0.2855695674825809  -3.2184278722848805  4.362693329495738 
H  0.5745038719569966  -5.4264569398790385  3.8299879096273455 
H  1.1580134098362986  -6.039828093008199  1.720519448684409 
H  1.4508763064966945  -4.426746274744352  0.05655194859723474 
H  -0.29978555649615957  -2.23100893089497  -2.2257592546105833 
H  0.03739469888928815  -3.5388150531284572  -4.194427970272741 
H  2.1502630282402664  -4.411567834522419  -4.64626650934918 
H  3.9027060234013358  -3.993292590338401  -3.2348929199640803 
H  3.58316280558848  -2.716407860405562  -1.3195209434503103 
Br  -1.5839191898578664  1.5839191898578664  0.0 
C  -1.2937473829822488  -1.2398794889499034  -0.4598005675376139 
C  -1.601562203225019  -1.4938654694550033  -1.7919791134336869 
H  -1.1309417375171225  -1.0428217585005106  -2.480879663633267 
C  -2.60218398542082  -2.411889969420291  -2.121542410022959 
H  -2.8231586547736818  -2.5626138747145775  -3.03270050271447 
C  -3.2683208079706407  -3.09759503004543  -1.143064365570095 
H  -3.9596020908062854  -3.707191723557817  -1.3683280760515548 
C  -2.9347449854640226  -2.896087320001541  0.14198826503765638 
H  -3.3668350933519986  -3.405606940434718  0.8171022443470677 
C  -1.9675509241539992  -1.9516175659140573  0.5112421903797603 
H  -1.7755298364628027  -1.8022912010877177  1.4301324877763764 

-Ni 0
lanl2dz
F 1 1.0
3.130 1.0
****
-P 0
6-31+g(d)
****
-H 0
6-31g(d,p)
****
-N 0
6-31+g(d)
****
-Br 0
6-31+g(d)
****
-C 0
6-31g(d)
****

-Ni 0
lanl2dz
