%chk=FOBEQUGE_PN_Pd_gaussain.chk
%nprocshared=32
%mem=64GB
#p opt rwb97xd/gen pseudo=read

This Gaussian input file was generated using the DART python program. This file was generated on the 2023-10-04 at 16:41:16

0 1
Pd  0.0  0.0  0.0 
P  1.4331252195813171  1.5614903473925157  -4.232581577869064e-15 
N  1.4331252195813178  -1.5614903473925157  1.6653345369377348e-16 
C  1.0973513952947846  2.7401838071845823  1.3476533407250766 
C  0.13641084858995067  2.4434795875436146  2.3175801842271135 
H  -0.33672833996727913  1.6201913987010057  2.2782002862629356 
C  -0.1307994661319294  3.349649790492883  3.340740181975836 
H  -0.7891357419277341  3.146765683313472  3.9938155275718574 
C  0.5657528615549343  4.552412995616876  3.4076818520616783 
H  0.3849535203532579  5.1683019677171025  4.107412644771559 
C  1.526879657445195  4.851745047704489  2.4482526181862596 
H  1.998818236982543  5.675176487512671  2.491524561517878 
C  1.8005537511652523  3.9513127924889098  1.425752557455755 
H  2.464213931304754  4.156413781768029  0.7787188570243508 
C  1.5358954125009698  2.6027525349654805  -1.4982366449189746 
C  0.679896032026792  3.6901349692119236  -1.6682267396895794 
H  0.057276596589095785  3.910710716333991  -0.9847943667390364 
C  0.7291838937694022  4.454676682193712  -2.830483460812628 
H  0.13446218177045655  5.1856983864944315  -2.943834610424477 
C  1.6461858999166363  4.14830365158301  -3.8208292877016157 
H  1.6790373496253508  4.672267079449362  -4.613100761699381 
C  2.5101711371104023  3.0876033771523943  -3.662582209579914 
H  3.145477175776292  2.8894969780212314  -4.340849459163702 
C  2.4559706562709858  2.3009500033091395  -2.50759945763171 
H  3.0442781666286374  1.5619314260076669  -2.409059386289698 
C  3.1491566407923286  1.0473917707727476  0.20479666729242765 
C  4.349828404789577  1.9539771828208639  0.37263595292392576 
H  4.417276327244546  2.286928251566287  1.3022636114936292 
H  4.30085607159626  2.728061330710994  -0.24360170623593216 
C  5.5377532977632695  1.0484685561674243  0.024659106410070297 
H  6.323642587469647  1.2669589653907094  0.5861805177580566 
H  5.787893192636209  1.1452584948643736  -0.9286661218095695 
C  5.0347676345958154  -0.38016595555091026  0.317745142541668 
H  5.392582954920238  -1.0265745111244362  -0.3422279067735956 
H  5.2943506896681285  -0.6701735279679865  1.2274240614246394 
C  3.527599942321123  -0.24849678427276212  0.19416979427861458 
C  2.7203619757641317  -1.463010932994095  0.14068972411562836 
H  3.194839281028514  -2.282782276529802  0.21804359348695626 
C  0.9745526093989514  -2.9494818541086247  0.020327283991660137 
C  0.9324086552019578  -3.654957130878356  -1.1866674844275507 
C  0.5553522744245574  -5.003832488012115  -1.130108430047898 
H  0.5103078089358396  -5.512990470530305  -1.9306857935592738 
C  0.24533179163258856  -5.607795014309394  0.08970387398829521 
H  0.015896011733286253  -6.529352424128126  0.11635857920497658 
C  0.2699922889667066  -4.87344095511536  1.256792193532494 
H  0.045651831147522026  -5.293958937244733  2.077927131098365 
C  0.6222329615894248  -3.5125936731911476  1.2488119786366478 
C  1.26848314978238  -2.991198592933669  -2.4829473336105927 
H  1.5053200147890764  -2.0544857099866403  -2.3185084869384496 
H  0.49338766218187  -3.0312833876328615  -3.080685599355135 
H  2.0268028917318794  -3.453011543749643  -2.9000517539040005 
C  0.6213970184621432  -2.695788957023798  2.515448882743681 
H  0.8909681827914301  -1.7756261859895037  2.311513789724731 
H  1.251635948195221  -3.0864705683566473  3.1568972282987033 
H  -0.2790175454551014  -2.6944459548057553  2.90191708251018 
Br  -1.654629867976521  1.654629867976521  0.0 
C  -1.352040782177733  -1.3199206589279684  -0.4819701001757076 
C  -1.6380700204479186  -1.599217458033982  -1.8139382277462257 
H  -1.1579680913617836  -1.159339363685303  -2.503515938957912 
C  -2.63068216563725  -2.52632649780156  -2.142289956238523 
H  -2.8368222554424674  -2.694399528648736  -3.0538898079700485 
C  -3.3101544432602585  -3.1961573187854975  -1.1619874135498987 
H  -3.9960123560788676  -3.811990145619169  -1.3868663427944008 
C  -2.9974710358883443  -2.9701089012107795  0.12423560353005347 
H  -3.438659168087169  -3.468581175155742  0.8017084178296768 
C  -2.0389854250767776  -2.015940632791841  0.4912562833419403 
H  -1.8619130127668426  -1.8492165108145995  1.4101568590026907 

-Pd 0
lanl2dz
F 1 1.0
1.472 1.0
****
-H 0
6-31g(d,p)
****
-P 0
6-31+g(d)
****
-N 0
6-31+g(d)
****
-C 0
6-31g(d)
****
-Br 0
6-31+g(d)
****

-Pd 0
lanl2dz


