%chk=TOMEGUGO_PN_Pd_gaussain.chk
%nprocshared=32
%mem=64GB
#p opt rwb97xd/gen pseudo=read

This Gaussian input file was generated using the DART python program. This file was generated on the 2023-08-11 at 15:55:49

0 0
Pd  0.0  0.0  0.0 
P  1.450537033308698  -1.5453291930847604  -2.3482464111530568e-15 
N  1.4505370333086982  1.5453291930847608  -1.8924824499402143e-16 
C  0.9992871115304239  2.2376681780645886  -1.2386122629670029 
C  1.7372493256287973  2.636799720884132  0.9757790827733174 
C  2.7096929842627473  0.851865059490788  -0.3114719515394538 
C  2.483294665992427  -0.4171414756704469  -1.0259720251590838 
C  2.723094660773654  -2.2278831141004387  1.1570367451757702 
C  0.9223197937010346  -2.8770587230834335  -1.1849975386939868 
C  2.170699492384158  -3.020036064732527  2.3175311789172093 
C  3.8583706696868605  -3.0043425347658874  0.4861253936202847 
C  0.5606556886703323  -4.1875247513330685  -0.49752228536774096 
C  1.905917629145047  -3.1147522589615555  -2.3349423682887163 
H  0.7986247625027623  1.5926325769379315  -1.9045573845512698 
H  0.22086726449949312  2.7491491968255195  -1.0455505909664844 
H  1.6884249668971743  2.8120880259340586  -1.5474995962685603 
H  2.0328268471646718  2.2553217628943325  1.791798295985027 
H  2.413328327720386  3.2016622006108832  0.6220152181294001 
H  0.9457452547960772  3.138625486209892  1.1240630910495248 
H  3.166353583511439  0.6734988471436417  0.4975522022327243 
H  3.2402079906129133  1.4191450500085843  -0.8592972981558786 
H  2.040176902173853  -0.24251459926923435  -1.8436181842198376 
H  3.322019798197184  -0.8298277743916663  -1.195056919386536 
H  3.0919991679348695  -1.4318039482469256  1.5137131199051883 
H  0.1315450346377136  -2.5299876734973137  -1.571668337911542 
H  1.47015718775509  -2.538651769186383  2.725220937712489 
H  1.8454407684918877  -3.8559185716963045  1.9996051543707187 
H  2.865812425308569  -3.17611078724427  2.9472415182591347 
H  4.197018731675593  -2.4908859369415057  -0.2415999476053056 
H  4.553237149286613  -3.150752824568515  1.1175527073853666 
H  3.5303888390619926  -3.8311462576991926  0.16859983162000972 
H  -0.048016666005994635  -4.0067741279384315  0.2080726386469063 
H  0.15281659361692435  -4.764909300847018  -1.1308393343476324 
H  1.3448792458091274  -4.5871960496970825  -0.1535853788098489 
H  2.114434940554746  -2.2917389840610793  -2.741434520955994 
H  2.692888278482474  -3.5201198064091885  -1.989568022747907 
H  1.501629811806857  -3.6983444081526002  -2.968639065577357 
Br  -1.654629867976521  1.654629867976521  0.0 
C  -1.352040782177733  -1.3199206589279684  -0.4819701001757076 
C  -1.6380700204479186  -1.599217458033982  -1.8139382277462257 
H  -1.1579680913617836  -1.159339363685303  -2.503515938957912 
C  -2.63068216563725  -2.52632649780156  -2.142289956238523 
H  -2.8368222554424674  -2.694399528648736  -3.0538898079700485 
C  -3.3101544432602585  -3.1961573187854975  -1.1619874135498987 
H  -3.9960123560788676  -3.811990145619169  -1.3868663427944008 
C  -2.9974710358883443  -2.9701089012107795  0.12423560353005347 
H  -3.438659168087169  -3.468581175155742  0.8017084178296768 
C  -2.0389854250767776  -2.015940632791841  0.4912562833419403 
H  -1.8619130127668426  -1.8492165108145995  1.4101568590026907 

-Pd 0
lanl2dz
F 1 1.0
1.472 1.0
****
-P 0
6-31+g(d)
****
-H 0
6-31g(d,p)
****
-N 0
6-31+g(d)
****
-Br 0
6-31+g(d)
****
-C 0
6-31g(d)
****

-Pd 0
lanl2dz
