%chk=INOWOQEJ_PN_Ni_gaussain.chk
%nprocshared=32
%mem=64GB
#p opt rwb97xd/gen pseudo=read

This Gaussian input file was generated using the DART python program. This file was generated on the 2023-10-04 at 16:41:16

0 1
Ni  0.0  0.0  0.0 
C  2.5094547363437565  -0.3030658105118835  -0.21740256041750278 
C  1.962889154507377  -2.535450598656002  -0.022936721734698927 
H  1.3156144655882211  -3.213378850285834  0.13294904646350666 
C  3.2769390804233014  -2.906674905609528  -0.27050690598000243 
H  3.5245517738387804  -3.8234060447349703  -0.2797822829160516 
C  4.210582190128728  -1.9313060796820287  -0.5010333623974799 
H  5.1167173908320445  -2.163405974686794  -0.6722340831469903 
C  3.817701289610561  -0.5965534326720109  -0.4783887315153441 
H  4.446157793706848  0.09721462128044447  -0.6427336120991642 
C  2.0729408432064633  2.3267531050551487  -1.3747011832560498 
C  2.1509939291036213  1.7565530347554874  -2.643813509101249 
H  1.9784497905944067  0.8293293041564542  -2.758407460425581 
C  2.4817317495202804  2.5418835659840924  -3.738121592259859 
H  2.5328782225431596  2.1528356799838018  -4.603364310054136 
C  2.733218661149481  3.883826054563436  -3.5699790615762503 
H  2.9773907550523004  4.417129377559548  -4.31960929325079 
C  2.634529748059723  4.4558142226207105  -2.3269484408610133 
H  2.7896879240440695  5.385932460939117  -2.219400064896179 
C  2.3070533081450506  3.6801999203929396  -1.2298965845294556 
H  2.2433603405837426  4.081754288803508  -0.372146087535346 
C  2.2533349526805715  1.9900118306288725  1.5198607955872059 
C  3.526801668465404  2.5687035579488295  1.5707101664745955 
H  4.048903129008734  2.65279877667842  0.7815706166576052 
C  4.0173033571828665  3.019915093635469  2.7902033740934944 
H  4.88138210868346  3.4125322668761133  2.834887112542245 
C  3.260843892946415  2.902068671646306  3.939866546414651 
H  3.601535780170975  3.220431303191859  4.767146990287689 
C  2.019518211055958  2.328398911374927  3.886546591150328 
H  1.5069345633230504  2.2380540700603686  4.681193722728064 
C  1.5025086344429188  1.8803004472732756  2.6841557419834765 
H  0.6336048526317227  1.49661035846865  2.652315143570344 
N  1.577542581834164  -1.2615305792964358  1.5449293859618863e-16 
P  1.577542581834164  1.2615305792964358  -1.5449293859618863e-16 
Br  -1.5839191898578664  1.5839191898578664  0.0 
C  -1.2937473829822488  -1.2398794889499034  -0.4598005675376139 
C  -1.601562203225019  -1.4938654694550033  -1.7919791134336869 
H  -1.1309417375171225  -1.0428217585005106  -2.480879663633267 
C  -2.60218398542082  -2.411889969420291  -2.121542410022959 
H  -2.8231586547736818  -2.5626138747145775  -3.03270050271447 
C  -3.2683208079706407  -3.09759503004543  -1.143064365570095 
H  -3.9596020908062854  -3.707191723557817  -1.3683280760515548 
C  -2.9347449854640226  -2.896087320001541  0.14198826503765638 
H  -3.3668350933519986  -3.405606940434718  0.8171022443470677 
C  -1.9675509241539992  -1.9516175659140573  0.5112421903797603 
H  -1.7755298364628027  -1.8022912010877177  1.4301324877763764 

-Ni 0
lanl2dz
F 1 1.0
3.130 1.0
****
-H 0
6-31g(d,p)
****
-P 0
6-31+g(d)
****
-N 0
6-31+g(d)
****
-C 0
6-31g(d)
****
-Br 0
6-31+g(d)
****

-Ni 0
lanl2dz


