%chk=ESAPITAW_PN_Pd_gaussain.chk
%nprocshared=32
%mem=64GB
#p opt rwb97xd/gen pseudo=read

This Gaussian input file was generated using the DART python program. This file was generated on the 2023-10-04 at 16:41:16

0 1
Pd  0.0  0.0  0.0 
P  1.5557815511825552  1.4393205914597345  -1.0113078212287416e-15 
N  1.555781551182556  -1.4393205914597345  -2.220446049250313e-16 
N  2.8649587125319504  0.49098465567236316  -0.48289652421142215 
C  1.5517414221288859  -2.7872355323780753  0.03148300186345476 
H  0.7758417042000568  -3.2414985602813293  0.335651029766043 
C  2.6612234464364235  -3.529841398883462  -0.3734555796155878 
H  2.6188029643344612  -4.478154052852869  -0.34328053993486096 
C  3.8255958219220636  -2.9195659152893856  -0.8202910810363723 
H  4.5688874641867  -3.433039629474538  -1.114058079489974 
C  3.865280656451259  -1.5239688975584023  -0.8217498506465928 
C  4.7855973720035525  -0.47351488198247305  -1.1980478100291276 
H  5.666671869049739  -0.5945581269924745  -1.5320389528642224 
C  4.167738461139059  0.7170061042157125  -0.9892559335419403 
H  4.550931404291309  1.5704737731206397  -1.1576156272108864 
C  2.70234113717436  -0.8740967977982246  -0.3927568571638445 
N  2.0186483232315537  2.475746095861845  1.2224372438525513 
C  2.7765108893775627  3.649603567244561  1.1232350376594493 
H  3.0362116127949896  4.0816365616237675  0.3177814288003093 
C  3.0741865306907368  4.059184072448145  2.3835164000250026 
H  3.5702234454358397  4.835626330435021  2.616810654610102 
C  2.5111736062568872  3.121028755966123  3.29301122083322 
H  2.5703257583870327  3.1606533784014617  4.241233790800477 
C  1.8762466783731608  2.1607807311683307  2.576914755878903 
H  1.4175045901085441  1.4088571802779826  2.9312619727031226 
N  1.3547822774551497  2.4713192745978367  -1.3022264895026163 
C  0.6058375749939939  3.65460386741584  -1.2696632425065768 
H  0.449823742083703  4.191783040414304  -0.5014208328224061 
C  0.14093606328291597  3.903740656069942  -2.5196346561588436 
H  -0.3791583025471479  4.653613656153533  -2.7838616123489244 
C  0.5708436287115121  2.8375849996406157  -3.3682086490734555 
H  0.3823620660287397  2.7491939276620134  -4.295885003694572 
C  1.2955161150208907  1.9744763132428953  -2.614135500731056 
H  1.6957472408276395  1.1701497915012058  -2.921544580555272 
Br  -1.654629867976521  1.654629867976521  0.0 
C  -1.352040782177733  -1.3199206589279684  -0.4819701001757076 
C  -1.6380700204479186  -1.599217458033982  -1.8139382277462257 
H  -1.1579680913617836  -1.159339363685303  -2.503515938957912 
C  -2.63068216563725  -2.52632649780156  -2.142289956238523 
H  -2.8368222554424674  -2.694399528648736  -3.0538898079700485 
C  -3.3101544432602585  -3.1961573187854975  -1.1619874135498987 
H  -3.9960123560788676  -3.811990145619169  -1.3868663427944008 
C  -2.9974710358883443  -2.9701089012107795  0.12423560353005347 
H  -3.438659168087169  -3.468581175155742  0.8017084178296768 
C  -2.0389854250767776  -2.015940632791841  0.4912562833419403 
H  -1.8619130127668426  -1.8492165108145995  1.4101568590026907 

-Pd 0
lanl2dz
F 1 1.0
1.472 1.0
****
-H 0
6-31g(d,p)
****
-P 0
6-31+g(d)
****
-N 0
6-31+g(d)
****
-C 0
6-31g(d)
****
-Br 0
6-31+g(d)
****

-Pd 0
lanl2dz


