%chk=IHURAFOR_PN_Ni_gaussain.chk
%nprocshared=32
%mem=64GB
#p opt rwb97xd/gen pseudo=read

This Gaussian input file was generated using the DART python program. This file was generated on the 2023-10-04 at 16:41:16

0 1
Ni  0.0  0.0  0.0 
P  1.372905624032475  -1.481630907986196  1.8144745489830815e-16 
C  2.0495993892752864  -2.46545338505724  2.4867026403837493 
H  1.5291413353045744  -1.7361108820253932  2.803217122403571 
C  2.163220343318302  -2.6898328294978646  1.1179057658567284 
C  2.69532478592623  -3.304359652671077  3.3962382121335546 
H  2.612670783731005  -3.149956380731415  4.330427789005094 
C  3.5664518935679297  -4.588849247712471  1.575847464914062 
H  4.085158993174356  -5.321758644477104  1.2656694983336034 
C  3.4543324838900356  -4.360145328825839  2.928697732112696 
H  3.8999249802164506  -4.929979776426244  3.544536712322246 
C  2.9336594430170395  -3.767510597552955  0.666224017393044 
H  3.020848774013091  -3.9327627319949836  -0.2659874353486827 
N  1.372905624032475  1.481630907986196  -1.8144745489830815e-16 
C  2.6084569560239204  0.9849191587690576  -0.4312818384813645 
C  1.1989209945806398  2.779113394776968  0.019006188090762523 
H  0.35069294607416235  3.1057633737908446  0.2992938598445067 
C  2.1886129558315166  3.738821569961208  -0.3477991149242975 
C  3.6730104984846834  1.8468976974969356  -0.7868478436151999 
C  3.4545976113241945  3.2772315907608207  -0.7463448251746104 
C  4.901206399363914  1.2796049524080688  -1.154374441881278 
H  5.629285629449409  1.8460615243357779  -1.3812051206662186 
C  1.9146982561391632  5.124859255818619  -0.28468603644218143 
H  1.054155233098777  5.430920227249315  -0.021002405430651433 
C  5.067651728138838  -0.08165521308167027  -1.1931074301452735 
H  5.911227574534876  -0.44722635976906505  -1.4353242505498143 
C  4.436879804482521  4.224444282150676  -1.0918046785209758 
H  5.298778007611872  3.936865130215239  -1.3723878904465634 
C  2.9009360841289666  6.028701678909105  -0.6081797162318948 
H  2.731905681214874  6.961405814298857  -0.5488976049541033 
C  4.145143925517616  5.568555885293984  -1.0217382441882097 
H  4.8127583253894155  6.199900429308258  -1.2633108830098136 
C  0.9805465535177742  -2.4322657742056055  -1.5132617390633043 
C  0.44048796418179437  -3.713707923371199  -1.421122125289945 
H  0.3308131240865928  -4.11665171442065  -0.5681727828874774 
C  0.060461448940648754  -4.409960484950192  -2.566532099145789 
H  -0.297686490123956  -5.286437145230622  -2.4920100371275775 
C  1.1000124839466832  -1.8467660688983774  -2.7722936872488786 
H  1.457443889472318  -0.9706912732097245  -2.8529276298727226 
C  0.6984535615001416  -2.5370693519138046  -3.915565548733148 
H  0.7649893992743035  -2.1217411674900672  -4.767020475029907 
C  0.20440025756433822  -3.82457734713563  -3.8117464988916168 
H  -0.03537649609051763  -4.306573994310498  -4.593612971199336 
C  2.7825004221557545  -0.422204476923499  -0.4929085029390305 
C  4.007064135351574  -0.935954977062965  -0.8785807678616637 
H  4.128363764179992  -1.8765533693401488  -0.930764716463423 
Br  -1.5839191898578664  1.5839191898578664  0.0 
C  -1.2937473829822488  -1.2398794889499034  -0.4598005675376139 
C  -1.601562203225019  -1.4938654694550033  -1.7919791134336869 
H  -1.1309417375171225  -1.0428217585005106  -2.480879663633267 
C  -2.60218398542082  -2.411889969420291  -2.121542410022959 
H  -2.8231586547736818  -2.5626138747145775  -3.03270050271447 
C  -3.2683208079706407  -3.09759503004543  -1.143064365570095 
H  -3.9596020908062854  -3.707191723557817  -1.3683280760515548 
C  -2.9347449854640226  -2.896087320001541  0.14198826503765638 
H  -3.3668350933519986  -3.405606940434718  0.8171022443470677 
C  -1.9675509241539992  -1.9516175659140573  0.5112421903797603 
H  -1.7755298364628027  -1.8022912010877177  1.4301324877763764 

-Ni 0
lanl2dz
F 1 1.0
3.130 1.0
****
-H 0
6-31g(d,p)
****
-P 0
6-31+g(d)
****
-N 0
6-31+g(d)
****
-C 0
6-31g(d)
****
-Br 0
6-31+g(d)
****

-Ni 0
lanl2dz


