%chk=UJIHADUG_PN_Ni_gaussain.chk
%nprocshared=32
%mem=64GB
#p opt rwb97xd/gen pseudo=read

This Gaussian input file was generated using the DART python program. This file was generated on the 2023-10-04 at 16:41:16

0 1
Ni  0.0  0.0  0.0 
C  2.942016797852393  1.1098037344470169  -0.7686939800701109 
H  2.779237905627863  1.1294945848748166  -1.7343040269604724 
C  3.4494828053273907  -0.31804613070469673  -0.4646918849397898 
H  4.280736840505497  -0.44828685743987273  -0.9482850012055257 
H  3.6618476129031987  -0.3614189446996882  0.4825352459583217 
C  2.5655777267808624  -1.4670191847184557  -0.7773634110978018 
H  3.0649920907545147  -2.2870906700954228  -0.5758104356089343 
C  4.015832911085666  2.1197134596349447  -0.5278230770297849 
H  4.13304474278215  2.239721446669545  0.41913012643819997 
H  3.767074758535662  2.954079125982538  -0.9270550601677263 
H  4.837357668132989  1.8104129957666084  -0.9141404939412809 
C  1.5413862326946128  1.974782475390228  1.6853718682033763 
C  0.5011445850296614  2.688784945673537  2.2818215952488914 
H  -0.24983940282079087  2.9090502344618  1.7840277196866512 
C  0.5703671151168224  3.059383025566437  3.606192130449696 
H  -0.10399388289978484  3.5711200310600484  3.9914680855292706 
C  1.629421700115844  2.6802228747817685  4.311800418417976 
H  1.6922169989833655  2.9696707527208486  5.194540038236132 
C  2.617688339209037  1.895477786068117  3.82932639238625 
H  3.293636918795837  1.5754773900062728  4.38012947360028 
C  2.585060302729898  1.5877155042768993  2.464536610353071 
H  3.2885716669280782  1.1118933663943518  2.085232123766228 
C  0.9009191572342187  2.9950239809296444  -0.9266973145760652 
C  0.2936986454790249  2.887660585297003  -2.076012193702758 
H  0.03747659557045635  2.045988830483304  -2.3742845160685495 
C  0.011533792677912658  4.019896616713156  -2.893837557094454 
H  -0.40626007109103157  3.9476871903539212  -3.721627890537612 
C  0.39192231912270437  5.172701027853796  -2.388237073902594 
H  0.17473010195488836  5.943007525588909  -2.8751965592284137 
C  1.0438847811271883  5.340962771956463  -1.2427873004037138 
H  1.3234196871357584  6.188664811439693  -0.9815134429691149 
C  1.3116505284561077  4.207024035788336  -0.4181408991050514 
H  1.73822063424613  4.286045823700368  0.4026167032852609 
C  2.183226980207166  -1.5212625774188482  -2.20806198555118 
H  1.6873742503895317  -2.325760145532181  -2.3771004226953143 
H  2.9760541697545904  -1.5132991794563182  -2.750067236270442 
H  1.6403859072228864  -0.7590627357107759  -2.421716357800996 
C  1.6028409449597523  -1.9170429410922531  1.3673943439011382 
H  0.7581477322896607  -1.9032004742026702  1.8456093923673074 
H  2.1704933397166624  -1.2440383879764416  1.7742114283655739 
C  2.2308730325844466  -3.240806338704027  1.6182039809909328 
C  3.416619584925534  -3.3624967787960065  2.235430690070723 
H  3.851936833809034  -2.6108378878515603  2.564678551853724 
C  3.999923958169835  -4.653556781346934  2.3969174324593294 
H  4.802829114025767  -4.765920273370506  2.85217573975338 
C  3.350657259713447  -5.690663870339577  1.8607956736798714 
H  3.7368572749016096  -6.533664021124373  1.9226710649553362 
C  2.2149831104144866  -5.583386592406606  1.2667789885157257 
H  1.8192139491617092  -6.340563371679764  0.902064640113029 
C  1.5747683737272375  -4.369327677054152  1.1515860157192024 
H  0.7270179048521958  -4.307645007397342  0.7717551049362846 
N  1.3410881029969672  -1.5104908804756154  -1.165921748031379e-15 
H  0.9008052613662395  -2.3060937043877994  -0.3659876718532172 
P  1.3410881029969657  1.5104908804756154  4.81152032583521e-16 
Br  -1.5839191898578664  1.5839191898578664  0.0 
C  -1.2937473829822488  -1.2398794889499034  -0.4598005675376139 
C  -1.601562203225019  -1.4938654694550033  -1.7919791134336869 
H  -1.1309417375171225  -1.0428217585005106  -2.480879663633267 
C  -2.60218398542082  -2.411889969420291  -2.121542410022959 
H  -2.8231586547736818  -2.5626138747145775  -3.03270050271447 
C  -3.2683208079706407  -3.09759503004543  -1.143064365570095 
H  -3.9596020908062854  -3.707191723557817  -1.3683280760515548 
C  -2.9347449854640226  -2.896087320001541  0.14198826503765638 
H  -3.3668350933519986  -3.405606940434718  0.8171022443470677 
C  -1.9675509241539992  -1.9516175659140573  0.5112421903797603 
H  -1.7755298364628027  -1.8022912010877177  1.4301324877763764 

-Ni 0
lanl2dz
F 1 1.0
3.130 1.0
****
-H 0
6-31g(d,p)
****
-P 0
6-31+g(d)
****
-N 0
6-31+g(d)
****
-C 0
6-31g(d)
****
-Br 0
6-31+g(d)
****

-Ni 0
lanl2dz


