%chk=EXUXEZUK_PN_Ni_gaussain.chk
%nprocshared=32
%mem=64GB
#p opt rwb97xd/gen pseudo=read

This Gaussian input file was generated using the DART python program. This file was generated on the 2023-10-04 at 09:55:46

0 1
Ni  0.0  0.0  0.0 
P  1.4114159521558483  -1.4449930830284272  -5.200069092990875e-16 
N  1.4114159521558483  1.4449930830284277  5.446843506142688e-16 
N  3.519381991080441  1.9884173036857862  0.3404408834785153 
C  1.534279546610786  2.8127708621841485  -0.06597949685666893 
C  2.813201992305747  3.1507003067850894  0.15168969795361387 
C  4.9379719549875425  1.8649307540989672  0.6308118985148505 
C  2.6340424891396452  0.9686164705139035  0.23297625224950674 
C  2.9437226039001443  -0.45702285205126353  0.3789192496075851 
C  1.761064414378506  -2.1279885254229303  -1.6714491283116315 
C  1.8501841175763274  -1.003771849869446  -2.680770937701204 
C  0.7154904020236486  -3.170805932439096  -2.060477533845573 
C  1.43993708900145  -2.839959345272014  1.1830501434661298 
C  1.4491427196353872  -2.3124630762916003  2.6014564155110604 
C  2.618033828927187  -3.7919653279698124  0.9543738213774933 
H  0.8173905665538875  3.3933705618323264  -0.20744524904227638 
H  3.157950623235767  4.008309969111495  0.19851189948521253 
H  5.321930316209478  2.7071287163545827  0.6850722820395744 
H  5.0404822846603  1.4243495516853661  1.5108713376382463 
H  5.3471472752967895  1.3196848499810307  -0.005569450435964985 
H  3.22269875335879  -0.6592277784496928  1.2973962040127773 
H  3.6290799036934227  -0.7193887377103458  -0.19747552280313818 
H  2.5965181310665626  -2.588780246726209  -1.606103685850121 
H  2.0502964971346143  -1.3877076531033803  -3.5023300071190056 
H  1.0111251951442923  -0.5725229827856012  -2.6858659672503347 
H  2.5266868492073993  -0.4244027858698985  -2.3828120281582934 
H  0.9265613806723642  -3.554635665961142  -2.8833472730125282 
H  0.6956105367963883  -3.8899507243450353  -1.3863221665650594 
H  -0.146572863037699  -2.7827962481124824  -2.0723948280245876 
H  0.6322951520589338  -3.36048940789599  1.094731427463032 
H  0.7143068542666297  -1.7392667823244936  2.7523999465090268 
H  1.3565898206911093  -3.0644969598881366  3.2395361979988957 
H  2.257447085187332  -1.8820658534228432  2.7958193316667304 
H  3.428467395950668  -3.354611061418236  1.1338519787413897 
H  2.5494838580841295  -4.549722436194295  1.587243599793786 
H  2.5903460672868928  -4.139829913554206  0.09170267432807248 
Br  -1.5839191898578664  1.5839191898578664  0.0 
C  -1.2937473829822488  -1.2398794889499034  -0.4598005675376139 
C  -1.601562203225019  -1.4938654694550033  -1.7919791134336869 
H  -1.1309417375171225  -1.0428217585005106  -2.480879663633267 
C  -2.60218398542082  -2.411889969420291  -2.121542410022959 
H  -2.8231586547736818  -2.5626138747145775  -3.03270050271447 
C  -3.2683208079706407  -3.09759503004543  -1.143064365570095 
H  -3.9596020908062854  -3.707191723557817  -1.3683280760515548 
C  -2.9347449854640226  -2.896087320001541  0.14198826503765638 
H  -3.3668350933519986  -3.405606940434718  0.8171022443470677 
C  -1.9675509241539992  -1.9516175659140573  0.5112421903797603 
H  -1.7755298364628027  -1.8022912010877177  1.4301324877763764 

-Ni 0
lanl2dz
F 1 1.0
3.130 1.0
****
-P 0
6-31+g(d)
****
-N 0
6-31+g(d)
****
-C 0
6-31g(d)
****
-H 0
6-31g(d,p)
****
-Br 0
6-31+g(d)
****

-Ni 0
lanl2dz


