%chk=KIDONUXU_PN_Pd_gaussain.chk
%nprocshared=32
%mem=64GB
#p opt rwb97xd/gen pseudo=read

This Gaussian input file was generated using the DART python program. This file was generated on the 2023-10-04 at 16:41:16

0 1
Pd  0.0  0.0  0.0 
P  1.5500603851140762  -1.445480128711564  -2.5756771040098914e-15 
N  2.8688346109453597  -0.463143736259267  -0.49325249451670455 
C  4.194526764511913  -0.668220498721735  -0.917060393770614 
H  4.597802898834843  -1.5149516060465784  -1.066521998786761 
C  4.809488383531058  0.5332372076169895  -1.0803353673968963 
H  5.71106058352286  0.6651142125052644  -1.3477926233906048 
C  3.8617938902568167  1.5610865916997152  -0.7783393391804991 
C  3.807776728883755  2.9571923630040864  -0.7571008927254768 
H  4.558738927755348  3.4816841702181867  -1.00837128499493 
C  2.623287199283505  3.5509099506439563  -0.35821402857161344 
H  2.5642658038367294  4.499689510292723  -0.34602091280046565 
C  1.5296056136973666  2.8054969189474113  0.021131554672456036 
H  0.7408267234819014  3.251435989430907  0.3043958442798711 
N  1.5500603851140764  1.445480128711564  -1.770202612857721e-16 
C  2.6869433440033816  0.8942529902864789  -0.40194891423017465 
C  2.144111167439189  -2.440505232434038  1.3909033758608307 
C  1.5338897189630791  -2.3119998062366043  2.644038930881739 
H  0.7486901212258227  -1.786718500102849  2.737851516069872 
C  2.0718695230642585  -2.944729351827266  3.7397505318588986 
H  1.66338205456419  -2.842932898816765  4.5913971429793605 
C  3.1943591477697795  -3.724513845305362  3.6091729451160766 
H  3.5491746712627084  -4.171751242180707  4.368903104531054 
C  3.8156540258715856  -3.8626790687719867  2.3728114019302224 
H  4.599735949165245  -4.3911615984356205  2.2860813990218927 
C  3.2810238114674766  -3.2259710769296124  1.2733779446576674 
H  3.6954161515320165  -3.3257557554838346  0.4244323065737659 
C  1.2747660259177738  -2.5734537601812137  -1.3840877257254716 
C  0.9621685717372346  -3.905557662374827  -1.170368294226138 
H  0.9565076145920818  -4.257708567039094  -0.28805462896397704 
C  0.6560137679148811  -4.725269273392368  -2.2533336864984657 
H  0.43205458451137857  -5.636096533379362  -2.108212197277117 
C  0.6759969896965551  -4.219049315424332  -3.539099479713581 
H  0.4606469936807065  -4.778709862761699  -4.276028398246473 
C  1.0126169711882076  -2.8875044108841297  -3.747326579903694 
H  1.0483746445203166  -2.54259993928521  -4.631098628720024 
C  1.2956778298762939  -2.064200156220474  -2.6817885399766785 
H  1.5047041496647726  -1.1500921973806872  -2.8290586565022124 
Br  -1.654629867976521  1.654629867976521  0.0 
C  -1.352040782177733  -1.3199206589279684  -0.4819701001757076 
C  -1.6380700204479186  -1.599217458033982  -1.8139382277462257 
H  -1.1579680913617836  -1.159339363685303  -2.503515938957912 
C  -2.63068216563725  -2.52632649780156  -2.142289956238523 
H  -2.8368222554424674  -2.694399528648736  -3.0538898079700485 
C  -3.3101544432602585  -3.1961573187854975  -1.1619874135498987 
H  -3.9960123560788676  -3.811990145619169  -1.3868663427944008 
C  -2.9974710358883443  -2.9701089012107795  0.12423560353005347 
H  -3.438659168087169  -3.468581175155742  0.8017084178296768 
C  -2.0389854250767776  -2.015940632791841  0.4912562833419403 
H  -1.8619130127668426  -1.8492165108145995  1.4101568590026907 

-Pd 0
lanl2dz
F 1 1.0
1.472 1.0
****
-H 0
6-31g(d,p)
****
-P 0
6-31+g(d)
****
-N 0
6-31+g(d)
****
-C 0
6-31g(d)
****
-Br 0
6-31+g(d)
****

-Pd 0
lanl2dz


