%chk=EQUJUSAW_PN_Pd_gaussain.chk
%nprocshared=32
%mem=64GB
#p opt rwb97xd/gen pseudo=read

This Gaussian input file was generated using the DART python program. This file was generated on the 2023-10-04 at 09:55:46

0 1
Pd  0.0  0.0  0.0 
N  1.5081306442082558  -1.489174925923748  5.79526453678036e-15 
C  1.499569597076212  -2.094631158300688  1.3625637156287296 
H  2.242632616602008  -2.727553767721698  1.442937402223987 
H  0.6512818515591332  -2.565756643820662  1.5041557270528643 
H  1.5977169649787593  -1.3884273526277928  2.0342211722440346 
C  1.3560080110161277  -2.580996156388955  -1.0073845368955017 
H  0.5372661103550394  -3.0856741273357216  -0.8200977361247533 
H  2.1284708885272856  -3.1817230048114666  -0.9583664131905536 
H  1.3010457660282406  -2.1916151173278045  -1.9050821296546436 
C  2.8273752882445313  -0.834206377218851  -0.2504312867615212 
H  2.9309936218108237  -0.6727662295136575  -1.2205990813506284 
H  3.55188261599929  -1.4455442020450902  0.03519286481955777 
C  2.9610503362475287  0.47917061157698876  0.4924993740965305 
H  3.80195891461672  0.9366694910839654  0.24145324671154655 
H  2.962630357248525  0.327773756798396  1.4707460586791132 
P  1.5081306442082536  1.4891749259237488  -2.2400469406374495e-16 
C  2.0068479556161654  2.245868394490583  -1.5759621340407926 
C  1.300032086316789  1.9417055778093728  -2.7406007551826628 
H  0.5213586749595174  1.4002269469495299  -2.6920643691675865 
C  1.7272291877093493  2.426653442179323  -3.9704399541858586 
H  1.243788374759449  2.210640874145747  -4.759543959261163 
C  2.8437307560236635  3.213355406875166  -4.047930319363874 
H  3.1352669169313785  3.539195744066585  -4.890919193277529 
C  3.5564113239762634  3.5399690581883525  -2.888782174889376 
H  4.3233710964733225  4.098355709430275  -2.941718505382718 
C  3.137844344058056  3.0470482285251315  -1.6702947523008826 
H  3.63032776777255  3.2578890737033674  -0.8851079494501177 
C  1.4061089374771274  2.8145479131003155  1.2389494768626974 
C  1.5423046626648615  4.177726532791866  0.9499990914045231 
H  1.64156733066852  4.468009354826255  0.0502424709939995 
C  1.5301358262095321  5.1095498101272865  1.9912754856607349 
H  1.6350374437862225  6.035055428041894  1.8019658666808918 
C  1.3663677190278078  4.689383455518629  3.2854370835785196 
H  1.3820645810401375  5.328137092476324  3.988375985472742 
C  1.17659028555431  3.3462204159185247  3.588917337955017 
H  1.032389320356991  3.0717636325782656  4.485950735167553 
C  1.203574593493181  2.4118827395458795  2.5657646740599067 
H  1.0833453297520328  1.491405718251882  2.7660212779709696 
Br  -1.654629867976521  1.654629867976521  0.0 
C  -1.352040782177733  -1.3199206589279684  -0.4819701001757076 
C  -1.6380700204479186  -1.599217458033982  -1.8139382277462257 
H  -1.1579680913617836  -1.159339363685303  -2.503515938957912 
C  -2.63068216563725  -2.52632649780156  -2.142289956238523 
H  -2.8368222554424674  -2.694399528648736  -3.0538898079700485 
C  -3.3101544432602585  -3.1961573187854975  -1.1619874135498987 
H  -3.9960123560788676  -3.811990145619169  -1.3868663427944008 
C  -2.9974710358883443  -2.9701089012107795  0.12423560353005347 
H  -3.438659168087169  -3.468581175155742  0.8017084178296768 
C  -2.0389854250767776  -2.015940632791841  0.4912562833419403 
H  -1.8619130127668426  -1.8492165108145995  1.4101568590026907 

-Pd 0
lanl2dz
F 1 1.0
1.472 1.0
****
-P 0
6-31+g(d)
****
-N 0
6-31+g(d)
****
-C 0
6-31g(d)
****
-H 0
6-31g(d,p)
****
-Br 0
6-31+g(d)
****

-Pd 0
lanl2dz


