%chk=XAHENOJE_PN_Pd_gaussain.chk
%nprocshared=32
%mem=64GB
#p opt rwb97xd/gen pseudo=read

This Gaussian input file was generated using the DART python program. This file was generated on the 2023-08-13 at 16:51:13

0 1
Pd  0.0  0.0  0.0 
P  1.4331252195813162  1.5614903473925157  -3.9979533520406605e-15 
N  1.4331252195813178  -1.5614903473925157  1.6653345369377348e-16 
C  1.3848817436725842  2.7401838071845823  1.3880151853908897 
C  0.6465991834674607  2.4434795875436146  2.536537574090465 
H  0.17561168019710394  1.6201913987010057  2.596389390064739 
C  0.5979549803399612  3.349649790492883  3.5928952193929553 
H  0.0897869310285273  3.146765683313472  4.368575110013477 
C  1.2932039242661264  4.552412995616876  3.513552681184114 
H  1.2618376946850165  5.1683019677171025  4.235582973960825 
C  2.0338512394321286  4.851745047704489  2.3752597807712 
H  2.504473571603353  5.675176487512671  2.3194645802863696 
C  2.08895518109966  3.9513127924889098  1.3182037560591313 
H  2.603586923332913  4.156413781768029  0.5473265842070145 
C  1.222148723122394  2.6027525349654805  -1.4868637041345536 
C  0.3495120548559256  3.6901349692119236  -1.4751668289495916 
H  -0.11740807186795243  3.910710716333991  -0.6772192335263563 
C  0.1560760985117604  4.454676682193712  -2.6222729748245395 
H  -0.44921654635624564  5.1856983864944315  -2.6094975331500545 
C  0.8471349353299621  4.14830365158301  -3.7816328068740885 
H  0.7145460002976141  4.672267079449362  -4.563421448749591 
C  1.7251414397397253  3.0876033771523943  -3.80647643859275 
H  2.2055448265051862  2.8894969780212314  -4.602009474115208 
C  1.9122597862709316  2.3009500033091395  -2.665463917271228 
H  2.5081989988669675  1.5619314260076669  -2.691393192111147 
C  3.1542368583933014  1.0473917707727476  -0.15646162553001716 
C  4.363566813277325  1.9539771828208639  -0.24192372755050173 
H  4.622821295125315  2.286928251566287  0.6533661246554814 
H  4.1875416294004415  2.728061330710994  -0.8345131947420199 
C  5.453184242667377  1.0484685561674243  -0.8292799181416117 
H  6.3386468318997995  1.2669589653907094  -0.44342466788934004 
H  5.499650520586777  1.1452584948643736  -1.8137797113276697 
C  5.022126036363826  -0.38016595555091026  -0.4380219154046705 
H  5.234906120867668  -1.0265745111244362  -1.157966958390518 
H  5.46516946100019  -0.6701735279679865  0.39780798465110584 
C  3.5222008146610637  -0.24849678427276212  -0.24553906257128813 
C  2.7214838026394683  -1.463010932994095  -0.13001625436913444 
H  3.2016754141587542  -2.282782276529802  -0.15300213142826602 
C  0.9887998011536363  -2.9494818541086247  0.11522569081160633 
C  0.6966284703601829  -3.654957130878356  -1.0566311252410567 
C  0.33957096478852367  -5.003832488012115  -0.9229135922387723 
H  0.12906143566632333  -5.512990470530305  -1.6966311485774785 
C  0.2899384119796957  -5.607795014309394  0.33469976906522186 
H  0.07105817917855295  -6.529352424128126  0.40847438595414093 
C  0.5567113241300581  -4.87344095511536  1.4711572029746856 
H  0.5079967968255551  -5.293958937244733  2.3209913759374623 
C  0.8995955129647473  -3.5125936731911476  1.390116421101199 
C  0.7558471956852124  -2.991198592933669  -2.3944579660079683 
H  1.0216973656045563  -2.0544857099866403  -2.282853655719697 
H  -0.12658736934824888  -3.0312833876328615  -2.8179828031405405 
H  1.4108749465914299  -3.453011543749643  -2.9601111937026374 
C  1.1621264575855128  -2.695788957023798  2.6292480722034095 
H  1.3834063551945763  -1.7756261859895037  2.373722453690084 
H  1.9119577646895638  -3.0864705683566473  3.125645190902744 
H  0.36173936908483295  -2.6944459548057553  3.194477728985894 
Br  -1.654629867976521  1.654629867976521  0.0 
C  -1.352040782177733  -1.3199206589279684  -0.4819701001757076 
C  -1.6380700204479186  -1.599217458033982  -1.8139382277462257 
H  -1.1579680913617836  -1.159339363685303  -2.503515938957912 
C  -2.63068216563725  -2.52632649780156  -2.142289956238523 
H  -2.8368222554424674  -2.694399528648736  -3.0538898079700485 
C  -3.3101544432602585  -3.1961573187854975  -1.1619874135498987 
H  -3.9960123560788676  -3.811990145619169  -1.3868663427944008 
C  -2.9974710358883443  -2.9701089012107795  0.12423560353005347 
H  -3.438659168087169  -3.468581175155742  0.8017084178296768 
C  -2.0389854250767776  -2.015940632791841  0.4912562833419403 
H  -1.8619130127668426  -1.8492165108145995  1.4101568590026907 

-Pd 0
lanl2dz
F 1 1.0
1.472 1.0
****
-C 0
6-31g(d)
****
-N 0
6-31+g(d)
****
-H 0
6-31g(d,p)
****
-Br 0
6-31+g(d)
****
-P 0
6-31+g(d)
****

-Pd 0
lanl2dz


