%chk=DODIQAZA_PN_Ni_gaussain.chk
%nprocshared=32
%mem=64GB
#p opt rwb97xd/gen pseudo=read

This Gaussian input file was generated using the DART python program. This file was generated on the 2023-10-04 at 16:41:16

0 1
Ni  0.0  0.0  0.0 
P  1.4934261263952764  -1.3600655884919666  1.6655999695771482e-16 
N  1.4934261263952764  1.360065588491967  -1.6655999695771487e-16 
C  1.114359770293749  -1.7279263550853958  -1.7329268605666206 
C  0.2526078710148565  -2.7915698126071855  -2.006825015654086 
C  -0.16421469524901133  -3.035717111685741  -3.3063733620444498 
C  0.28310933961957163  -2.2331773524008534  -4.34354249125911 
C  1.1183148050873926  -1.167600227104326  -4.066346188077578 
C  1.5307093015031321  -0.9006923455495076  -2.781712535206077 
C  1.7772453202865206  -2.9530598884229633  0.7960646742358933 
C  2.421105572597528  -3.964583719803338  0.08659520058421293 
C  2.801042325767359  -5.129124579745371  0.7378700804285415 
C  2.54032326926016  -5.280639721179462  2.0846285166338823 
C  1.8690457162539624  -4.300065154567023  2.7838176871327254 
C  1.4914615115704748  -3.128047695638853  2.14773148673132 
C  3.117723983489344  -0.4525522005761953  0.14551079751450374 
C  4.252799735751017  -1.0857119851383705  -0.6581389855631972 
C  3.5024383154058825  -0.4596253778416144  1.6538574761601825 
C  2.7712812818873185  0.9636181049571066  -0.23621588511641106 
C  3.7243316479865767  1.8236252324787434  -0.762283713718438 
C  3.361841998389804  3.118043442818162  -1.079465429264752 
C  2.073038673190388  3.5244697429004264  -0.8914434317314294 
C  1.164054379994718  2.6331726905692197  -0.35559696190141293 
H  -0.06156754308705947  -3.3522784000846215  -1.2979947192481416 
H  -0.7600966033555414  -3.755984687962108  -3.4935151803435924 
H  0.019747088240775756  -2.4214430670594473  -5.241323653476751 
H  1.3986180083972597  -0.6140057818284651  -4.797407146120046 
H  2.1067412493720257  -0.12493263665938513  -2.595792312806533 
H  2.5823608839706473  -3.858651273442608  -0.8679055125438637 
H  3.236665665448826  -5.851299600796425  0.24453344597425325 
H  2.853462776917404  -6.0877563038563  2.5259223877812724 
H  1.6615989389506587  -4.4248746280485305  3.719181359677133 
H  1.0171109676670795  -2.4432032088132085  2.6540286330427487 
H  4.0213924608034475  -1.0968438600480126  -1.586888232918127 
H  5.051624922304464  -0.5941043702869709  -0.5453956737971212 
H  4.395931620144396  -1.9892611377660623  -0.3742084439587654 
H  2.8024751451337417  -0.06418358845236956  2.170950989431448 
H  3.645389781383487  -1.349052571820756  1.9606260941530427 
H  4.301970966155061  0.04625483912857087  1.7889928026451374 
H  4.6307041849340855  1.5065858016979778  -0.8771277105035988 
H  4.01788738015213  3.732899415262273  -1.4474967733349682 
H  1.8007481550713327  4.412493574412237  -1.1390931004361264 
H  0.25583880105363166  2.9210200071343575  -0.19249507805277535 
Br  -1.5839191898578664  1.5839191898578664  0.0 
C  -1.2937473829822488  -1.2398794889499034  -0.4598005675376139 
C  -1.601562203225019  -1.4938654694550033  -1.7919791134336869 
H  -1.1309417375171225  -1.0428217585005106  -2.480879663633267 
C  -2.60218398542082  -2.411889969420291  -2.121542410022959 
H  -2.8231586547736818  -2.5626138747145775  -3.03270050271447 
C  -3.2683208079706407  -3.09759503004543  -1.143064365570095 
H  -3.9596020908062854  -3.707191723557817  -1.3683280760515548 
C  -2.9347449854640226  -2.896087320001541  0.14198826503765638 
H  -3.3668350933519986  -3.405606940434718  0.8171022443470677 
C  -1.9675509241539992  -1.9516175659140573  0.5112421903797603 
H  -1.7755298364628027  -1.8022912010877177  1.4301324877763764 

-Ni 0
lanl2dz
F 1 1.0
3.130 1.0
****
-H 0
6-31g(d,p)
****
-P 0
6-31+g(d)
****
-N 0
6-31+g(d)
****
-C 0
6-31g(d)
****
-Br 0
6-31+g(d)
****

-Ni 0
lanl2dz


