%chk=QUDAFAFE_PN_Ni_gaussain.chk
%nprocshared=32
%mem=64GB
#p opt rwb97xd/gen pseudo=read

This Gaussian input file was generated using the DART python program. This file was generated on the 2023-10-04 at 16:41:16

0 1
Ni  0.0  0.0  0.0 
P  1.4172001393592926  1.4393205914597345  -1.2061692430452638e-15 
N  1.4172001393592932  -1.4393205914597345  -2.220446049250313e-16 
N  2.72637730070869  0.4909846556723634  -0.48289652421142015 
C  1.4131600103056234  -2.7872355323780753  0.03148300186345486 
H  0.6372602923767956  -3.2414985602813284  0.33565102976604094 
C  2.5226420346131615  -3.529841398883462  -0.3734555796155877 
H  2.480221552511196  -4.478154052852869  -0.3432805399348613 
C  3.6870144100988145  -2.9195659152893856  -0.8202910810363749 
H  4.430306052363458  -3.433039629474538  -1.114058079489988 
C  3.7266992446280107  -1.5239688975584023  -0.8217498506465991 
C  4.64701596018031  -0.47351488198247216  -1.1980478100291372 
H  5.5280904572264795  -0.594558126992474  -1.532038952864229 
C  4.029157049315817  0.717006104215713  -0.9892559335419473 
H  4.412349992468068  1.5704737731206402  -1.1576156272108988 
C  2.5637597253510966  -0.8740967977982241  -0.39275685716384456 
N  1.8800669114082909  2.4757460958618456  1.222437243852552 
C  2.6379294775542963  3.649603567244562  1.1232350376594507 
H  2.897630200971726  4.081636561623769  0.31778142880031013 
C  2.9356051188674805  4.059184072448147  2.3835164000250115 
H  3.4316420336125844  4.835626330435021  2.6168106546101217 
C  2.3725921944336337  3.121028755966123  3.293011220833235 
H  2.4317443465637734  3.1606533784014617  4.241233790800483 
C  1.7376652665499004  2.160780731168331  2.576914755878911 
H  1.278923178285278  1.408857180277983  2.9312619727031395 
N  1.2162008656318866  2.471319274597837  -1.3022264895026152 
C  0.4672561631707315  3.65460386741584  -1.2696632425065757 
H  0.31124233026044057  4.191783040414304  -0.5014208328224059 
C  0.0023546514596413104  3.903740656069942  -2.5196346561588694 
H  -0.5177397143704177  4.653613656153533  -2.7838616123489404 
C  0.43226221688823885  2.8375849996406157  -3.3682086490734706 
H  0.24378065420546857  2.749193927662015  -4.295885003694581 
C  1.1569347031976238  1.9744763132428953  -2.6141355007310665 
H  1.557165829004374  1.1701497915012067  -2.9215445805552864 
Br  -1.5839191898578664  1.5839191898578664  0.0 
C  -1.2937473829822488  -1.2398794889499034  -0.4598005675376139 
C  -1.601562203225019  -1.4938654694550033  -1.7919791134336869 
H  -1.1309417375171225  -1.0428217585005106  -2.480879663633267 
C  -2.60218398542082  -2.411889969420291  -2.121542410022959 
H  -2.8231586547736818  -2.5626138747145775  -3.03270050271447 
C  -3.2683208079706407  -3.09759503004543  -1.143064365570095 
H  -3.9596020908062854  -3.707191723557817  -1.3683280760515548 
C  -2.9347449854640226  -2.896087320001541  0.14198826503765638 
H  -3.3668350933519986  -3.405606940434718  0.8171022443470677 
C  -1.9675509241539992  -1.9516175659140573  0.5112421903797603 
H  -1.7755298364628027  -1.8022912010877177  1.4301324877763764 

-Ni 0
lanl2dz
F 1 1.0
3.130 1.0
****
-H 0
6-31g(d,p)
****
-P 0
6-31+g(d)
****
-N 0
6-31+g(d)
****
-C 0
6-31g(d)
****
-Br 0
6-31+g(d)
****

-Ni 0
lanl2dz


