%chk=GEFUFOFI_PN_Pd_gaussain.chk
%nprocshared=32
%mem=64GB
#p opt rwb97xd/gen pseudo=read

This Gaussian input file was generated using the DART python program. This file was generated on the 2023-08-11 at 15:55:49

0 0
Pd  0.0  0.0  0.0 
P  1.4855741154516655  -1.5116777260712682  -1.1761621416117079e-15 
N  1.4855741154516657  1.5116777260712682  -1.851271288575528e-16 
N  3.4776982907358645  3.457928553386359  -0.23306972652761704 
N  3.300798759058523  2.528458610310834  -1.1649953891271267 
C  3.613837518690976  0.32298456481787285  -0.027663058792356043 
C  3.1594008516998366  -0.9185634633307651  0.44459429635865344 
C  3.998528616719639  -1.7062982790674488  1.2278623884249589 
C  5.280088423870181  -1.2936001826144568  1.5013228094741724 
C  5.731627156890587  -0.07129719889444074  1.0248322234480942 
C  4.903191640771032  0.7233566577327792  0.28037782338100664 
C  2.6752522147774838  1.2373337783848632  -0.8099102594438415 
C  1.6176985333298675  2.4445964796373394  0.9247733978900401 
C  2.7453857383705387  3.355287039706554  0.8626876395519973 
C  2.957903404192003  4.340225253931327  1.92110100675478 
C  4.052474516022033  5.193442978685441  1.9188975293628348 
C  4.210707849044976  6.1229640636139315  2.9759496496453854 
C  3.3033224193949335  6.173181910110416  3.9894422988304274 
C  2.2456549109183235  5.3175459483624286  4.003366108528859 
C  2.0388645655436575  4.386729190443443  2.962554609631459 
C  0.8777382847015386  3.5281324785813224  2.9492950350780713 
C  0.649481470376687  2.617305136712367  1.9704979212601699 
C  3.993379612175648  2.6960421571415396  -2.392170693118876 
C  4.274668183088908  1.601835626561213  -3.2068705079641657 
C  4.955623954458247  1.8022788955028597  -4.38376225463199 
C  5.35103933170892  3.0529668578859654  -4.769163643035951 
C  5.079521814419145  4.138682147391145  -3.9433379423342236 
C  4.404015435069407  3.975259917414892  -2.7389833698733583 
C  1.149205912837795  -2.825795024844211  1.1859212947476918 
C  0.7499883614927645  -2.448667985682477  2.465256072290779 
C  0.6412027870482286  -3.4624829599779625  3.468092383304221 
C  0.8316550492039838  -4.762801133685928  3.1587997662495355 
C  1.174158944531825  -5.122368361955305  1.9258699912663932 
C  1.3426640659593714  -4.154497184940276  0.9298859207329992 
C  1.7510459527776556  -2.374621836116652  -1.5790568281492605 
C  0.7035667349115474  -2.593989644665262  -2.4226255525050395 
C  0.9052674901021118  -3.3726174233909703  -3.599461738026302 
C  2.1613863832104325  -3.887173278508019  -3.866009760605931 
C  3.1896136173505325  -3.6464090212043825  -3.0364125466655234 
C  2.9922484378524947  -2.886201253251981  -1.8949040554721597 
H  3.6842925832655613  -2.535338982245022  1.5717156969067565 
H  5.855082908001934  -1.8433980004072785  2.0203064053308415 
H  6.618940412122749  0.21401061345316666  1.214123399425103 
H  5.219084680129337  1.5647281505214723  -0.030223929362751683 
H  2.409833765281531  0.7959181555363319  -1.6083031856226906 
H  4.688705286932459  5.154712884968864  1.2139980145471072 
H  4.954232035750032  6.715045202711037  2.9782406123413447 
H  3.4104568594428706  6.806692104435293  4.6879063604986495 
H  1.633918422844689  5.3460698356013205  4.728183290317576 
H  0.2491902396289154  3.603830226868847  3.6568076398701037 
H  -0.1464777971635023  2.097807844759164  1.9771656097798815 
H  3.9999094518946086  0.7280505087286792  -2.9531125376718474 
H  5.154253712474993  1.0587299659825418  -4.941013632951856 
H  5.809030785762755  3.1799850256398945  -5.593439326939167 
H  5.361610453501189  5.006682609639233  -4.206161242743361 
H  4.2316112949273075  4.716563748696698  -2.1731246399868267 
H  0.5557974377491137  -1.5408103012494798  2.6689943110962306 
H  0.4313935373847131  -3.218427872284882  4.362693329495748 
H  0.7203278418591265  -5.426456939879039  3.8299879096273446 
H  1.303837379738429  -6.0398280930082  1.7205194486844095 
H  1.5967002763988256  -4.426746274744353  0.056551948597234475 
H  -0.15396158659402803  -2.2310089308949705  -2.2257592546105833 
H  0.18321866879141924  -3.5388150531284577  -4.194427970272744 
H  2.2960869981423975  -4.41156783452242  -4.6462665093491795 
H  4.048529993303465  -3.9932925903384024  -3.2348929199640697 
H  3.728986775490611  -2.7164078604055635  -1.3195209434503121 
Br  -1.654629867976521  1.654629867976521  0.0 
C  -1.352040782177733  -1.3199206589279684  -0.4819701001757076 
C  -1.6380700204479186  -1.599217458033982  -1.8139382277462257 
H  -1.1579680913617836  -1.159339363685303  -2.503515938957912 
C  -2.63068216563725  -2.52632649780156  -2.142289956238523 
H  -2.8368222554424674  -2.694399528648736  -3.0538898079700485 
C  -3.3101544432602585  -3.1961573187854975  -1.1619874135498987 
H  -3.9960123560788676  -3.811990145619169  -1.3868663427944008 
C  -2.9974710358883443  -2.9701089012107795  0.12423560353005347 
H  -3.438659168087169  -3.468581175155742  0.8017084178296768 
C  -2.0389854250767776  -2.015940632791841  0.4912562833419403 
H  -1.8619130127668426  -1.8492165108145995  1.4101568590026907 

-Pd 0
lanl2dz
F 1 1.0
1.472 1.0
****
-P 0
6-31+g(d)
****
-H 0
6-31g(d,p)
****
-N 0
6-31+g(d)
****
-Br 0
6-31+g(d)
****
-C 0
6-31g(d)
****

-Pd 0
lanl2dz
