%chk=DOYAQIGO_PN_Ni_gaussain.chk
%nprocshared=32
%mem=64GB
#p opt rwb97xd/gen pseudo=read

This Gaussian input file was generated using the DART python program. This file was generated on the 2023-10-04 at 16:41:16

0 1
Ni  0.0  0.0  0.0 
P  1.433277970248618  1.423311020121744  1.4205795416313946e-14 
N  1.4332779702486187  -1.423311020121744  -1.3739009929736312e-14 
C  1.2188749483270829  -2.7242852020272657  -0.09000873405496326 
H  0.3533689752046292  -3.0538550032642995  0.12214688477695787 
C  2.1986276343796263  -3.6405169964585697  -0.4788118629596143 
H  1.996571827593185  -4.567002256080324  -0.5084758924817581 
C  3.435313639508799  -3.208077388180006  -0.8162141449755567 
H  4.115271495733772  -3.828045762994079  -1.052021371302967 
C  4.939814621643213  -1.2618345285111057  -1.2134386985273915 
H  5.656753243598136  -1.8320539032831606  -1.4626444307727697 
C  5.112296658749212  0.07924225865290557  -1.2476576670334116 
H  5.94696833861577  0.4381083622514812  -1.5231042254013436 
C  4.07361808399842  0.9419845072831177  -0.8844332036747762 
H  4.205426152390457  1.88203171487486  -0.9170352067685812 
C  2.8653655496809622  0.4336753676980658  -0.4771680419806126 
C  2.6727006317992323  -0.9554093734788047  -0.4139425625659652 
C  3.700591665361857  -1.8330979266758007  -0.807886513793237 
C  1.0652541364649952  2.556106064357518  -1.33253905966098 
C  0.6792887026242294  2.015750239715552  -2.5755372964479704 
H  0.6927202982673832  1.0760505036130705  -2.714460362234813 
C  0.2805110891930951  2.8689998688064433  -3.58988066803486 
H  0.025850602205664153  2.5045343003774727  -4.428647128855171 
C  0.2459000915949181  4.214978662560272  -3.410870568849797 
H  -0.043866331979796946  4.782463350433287  -4.113751809742169 
C  0.6383711593578331  4.756195507726056  -2.18986745358847 
H  0.6300051625350146  5.697496531226457  -2.0651428238866427 
C  1.04444037139866  3.916293537531403  -1.1516742897236143 
H  1.3066392087892695  4.286317890996285  -0.3168337914762459 
C  1.9670200794790498  2.44715141016904  1.3922072821754146 
H  2.697309090664338  3.034822599512025  1.1052081822497155 
H  2.2815219845241046  1.8696527760828763  2.120717741504397 
H  1.2147026403536452  2.989534332163055  1.707321748230177 
Br  -1.5839191898578664  1.5839191898578664  0.0 
C  -1.2937473829822488  -1.2398794889499034  -0.4598005675376139 
C  -1.601562203225019  -1.4938654694550033  -1.7919791134336869 
H  -1.1309417375171225  -1.0428217585005106  -2.480879663633267 
C  -2.60218398542082  -2.411889969420291  -2.121542410022959 
H  -2.8231586547736818  -2.5626138747145775  -3.03270050271447 
C  -3.2683208079706407  -3.09759503004543  -1.143064365570095 
H  -3.9596020908062854  -3.707191723557817  -1.3683280760515548 
C  -2.9347449854640226  -2.896087320001541  0.14198826503765638 
H  -3.3668350933519986  -3.405606940434718  0.8171022443470677 
C  -1.9675509241539992  -1.9516175659140573  0.5112421903797603 
H  -1.7755298364628027  -1.8022912010877177  1.4301324877763764 

-Ni 0
lanl2dz
F 1 1.0
3.130 1.0
****
-H 0
6-31g(d,p)
****
-P 0
6-31+g(d)
****
-N 0
6-31+g(d)
****
-C 0
6-31g(d)
****
-Br 0
6-31+g(d)
****

-Ni 0
lanl2dz


