%chk=EKIZIJIV_PN_Ni_gaussain.chk
%nprocshared=32
%mem=64GB
#p opt rwb97xd/gen pseudo=read

This Gaussian input file was generated using the DART python program. This file was generated on the 2023-10-04 at 09:55:46

0 1
Ni  0.0  0.0  0.0 
P  1.446404009085982  -1.4099700147520873  1.0273063781154777e-16 
N  1.4464040090859818  1.4099700147520868  4.9373078379042364e-17 
C  1.4385850457955183  -0.4704474177180504  -1.5665896091432285 
H  2.099583483795878  -0.8534314807478922  -2.1967992111219887 
H  0.5435940340851696  -0.5135407348554959  -1.985599961015098 
C  1.7945257957435157  0.9557766395031808  -1.2436924256159252 
C  2.4934564980650746  1.7403891124106394  -2.133316700638992 
H  2.709625948664719  1.4107561733146115  -2.9976594475226523 
C  2.8738653312840134  3.000288550990081  -1.760256043002444 
H  3.3341702714574755  3.5648355602681163  -2.3706394768922494 
C  2.580494299746319  3.4428453099788277  -0.4862685026677946 
H  2.858136165069305  4.3091058170966035  -0.21381898729287027 
C  1.8818851793584555  2.6301166043960453  0.40432739224339315 
C  1.740776957602943  3.0747828656925593  1.8248499002726122 
C  0.9272455192370314  4.16576514113511  2.154977471766561 
C  0.8791051590086594  4.573510830039768  3.491615129808841 
H  0.3103584991080457  5.2935437061846615  3.7402108339600404 
C  1.6390468787706174  3.9490434401039525  4.449043080869421 
H  1.5830652232937437  4.231772176055186  5.354345271365786 
C  2.476421969819697  2.9233681385945953  4.106017859108294 
H  3.0229264827962483  2.524138183978167  4.773297044032592 
C  2.541385962923903  2.4546546354097765  2.7988408697406606 
C  0.08552268334406943  4.8798687954437  1.1410906050800214 
H  -0.6189153465739834  4.2793890042838365  0.8212793444687302 
H  0.6469647920840009  5.156402981221087  0.386690517175651 
H  -0.3213413927291364  5.670267490692513  1.5533029971184624 
C  3.4980025932578727  1.3605994116387727  2.4694714723949156 
H  4.252165049144238  1.387005072475856  3.095809704668195 
H  3.828615203606714  1.4794273641817628  1.554540961605821 
H  3.0438842548887663  0.4961082648434848  2.5429282070723014 
C  0.8258119937259651  -3.0756976546501296  -0.3645301224193977 
C  1.6329981345597617  -4.188236948810802  -0.20734945250631853 
H  2.5284412743212408  -4.085357619121293  0.09353038559646754 
C  1.1380952822088786  -5.455723977826968  -0.48599587364024155 
H  1.6902962989236099  -6.220205519081251  -0.3679237337396678 
C  -0.15571744055161107  -5.603258523117688  -0.935264987166857 
H  -0.4936703892728824  -6.470124667228496  -1.1272028485831298 
C  -0.9618623718953672  -4.502018416055543  -1.10744679882682 
H  -1.8475382704309753  -4.6087900377389115  -1.4318415484087104 
C  -0.4840301955963484  -3.2383205279034417  -0.8075953209694481 
H  -1.049220814737282  -2.48092656645259  -0.9035485449531179 
C  3.1395123401739107  -1.5906648326094703  0.5770357458600046 
C  4.231767617457574  -1.1671745074588398  -0.16481511095003273 
H  4.116723752144626  -0.8531945147156325  -1.053927664685976 
C  5.4993036105912205  -1.2076043105068306  0.4086288681239993 
H  6.250858571243045  -0.9150100987976282  -0.09314097791491227 
C  5.674889415886136  -1.6586778853670925  1.6747569165621363 
H  6.54312026860262  -1.6584467315151734  2.057429012434203 
C  4.613441970021979  -2.113053608465463  2.404217869545462 
H  4.750358616601718  -2.458344586221188  3.279496997921012 
C  3.3351313834998413  -2.0715242465731154  1.8654277374102533 
H  2.5942685460505785  -2.3719613555668713  2.37799283535012 
Br  -1.5839191898578664  1.5839191898578664  0.0 
C  -1.2937473829822488  -1.2398794889499034  -0.4598005675376139 
C  -1.601562203225019  -1.4938654694550033  -1.7919791134336869 
H  -1.1309417375171225  -1.0428217585005106  -2.480879663633267 
C  -2.60218398542082  -2.411889969420291  -2.121542410022959 
H  -2.8231586547736818  -2.5626138747145775  -3.03270050271447 
C  -3.2683208079706407  -3.09759503004543  -1.143064365570095 
H  -3.9596020908062854  -3.707191723557817  -1.3683280760515548 
C  -2.9347449854640226  -2.896087320001541  0.14198826503765638 
H  -3.3668350933519986  -3.405606940434718  0.8171022443470677 
C  -1.9675509241539992  -1.9516175659140573  0.5112421903797603 
H  -1.7755298364628027  -1.8022912010877177  1.4301324877763764 

-Ni 0
lanl2dz
F 1 1.0
3.130 1.0
****
-P 0
6-31+g(d)
****
-N 0
6-31+g(d)
****
-C 0
6-31g(d)
****
-H 0
6-31g(d,p)
****
-Br 0
6-31+g(d)
****

-Ni 0
lanl2dz


