%chk=EBAWIPAQ_PN_Ni_gaussain.chk
%nprocshared=32
%mem=64GB
#p opt rwb97xd/gen pseudo=read

This Gaussian input file was generated using the DART python program. This file was generated on the 2023-08-13 at 16:51:13

0 1
Ni  0.0  0.0  0.0 
P  1.3792073275979986  1.4757666304331458  3.5254745572058283e-15 
N  1.3792073275979948  -1.4757666304331458  1.1102230246251565e-15 
H  1.5358248844508695  -1.8630570313769912  0.7979980866030992 
H  1.1399052046085538  -2.126744434232676  -0.5730802848581509 
C  2.648852865900072  -0.8711260411970931  -0.4821491210382286 
H  2.5970021008793767  -0.7068313281984429  -1.4370466419521175 
H  3.3882346561991126  -1.476334823250835  -0.31613337389593843 
C  2.8690644291381693  0.44246554233873026  0.26300876094390224 
H  3.656479494763829  0.8945939386856265  -0.07847056147919507 
H  2.9981214670913516  0.2732835525503319  1.210263903598721 
C  1.7953282812943758  2.2982454153367904  -1.597352700651391 
C  2.9075322355587314  3.1409715275507395  -1.7055014589036384 
H  3.4165621473197723  3.329584252123799  -0.9490746620080712 
C  3.2614131730285587  3.6985285985887906  -2.920620257470665 
H  4.009268929579553  4.2473693795747876  -2.9784296383720017 
C  2.5169841879816968  3.446152204977909  -4.029102960163924 
H  2.7540547384588865  3.8284723620845913  -4.843993377070627 
C  1.4143693846734766  2.6291452608338197  -3.947918856141481 
H  0.9086730302610051  2.4483242695625376  -4.708511740837124 
C  1.0583184323957424  2.0752929828756836  -2.7270289620139465 
H  0.30186164559932704  1.5396975820174799  -2.674377311620126 
C  1.5274745303779855  2.8653838488398904  1.175336242480137 
C  2.020571240657212  2.7049311457383842  2.4527940752007416 
H  2.381958266795296  1.8846977531153786  2.703238757646262 
C  1.9898813063789684  3.7341187209813693  3.3716101519535746 
H  2.359175066508674  3.612019866539111  4.2162563491706075 
C  1.4227923999905663  4.936352785915646  3.0489054334215524 
H  1.3841923669469292  5.62142485568  3.6764062355547713 
C  0.9058604646289626  5.123698911175879  1.7890253107300087 
H  0.5059851503438947  5.933662143403977  1.5690876025850973 
C  0.9795397630193768  4.100508320698298  0.8390539656111882 
H  0.6621170806658386  4.246359389262453  -0.022577920130164852 
Br  -1.5839191898578664  1.5839191898578664  0.0 
C  -1.2937473829822488  -1.2398794889499034  -0.4598005675376139 
C  -1.601562203225019  -1.4938654694550033  -1.7919791134336869 
H  -1.1309417375171225  -1.0428217585005106  -2.480879663633267 
C  -2.60218398542082  -2.411889969420291  -2.121542410022959 
H  -2.8231586547736818  -2.5626138747145775  -3.03270050271447 
C  -3.2683208079706407  -3.09759503004543  -1.143064365570095 
H  -3.9596020908062854  -3.707191723557817  -1.3683280760515548 
C  -2.9347449854640226  -2.896087320001541  0.14198826503765638 
H  -3.3668350933519986  -3.405606940434718  0.8171022443470677 
C  -1.9675509241539992  -1.9516175659140573  0.5112421903797603 
H  -1.7755298364628027  -1.8022912010877177  1.4301324877763764 

-Ni 0
lanl2dz
F 1 1.0
3.130 1.0
****
-C 0
6-31g(d)
****
-N 0
6-31+g(d)
****
-H 0
6-31g(d,p)
****
-Br 0
6-31+g(d)
****
-P 0
6-31+g(d)
****

-Ni 0
lanl2dz


