%chk=OJEGURAT_PN_Pd_gaussain.chk
%nprocshared=32
%mem=64GB
#p opt rwb97xd/gen pseudo=read

This Gaussian input file was generated using the DART python program. This file was generated on the 2023-10-04 at 16:41:16

0 1
Pd  0.0  0.0  0.0 
P  1.7252117123703974  -1.2311557771053998  -1.1733739086839117e-15 
N  1.7252117123703972  1.2311557771054003  -2.0628424939964788e-16 
N  4.052883585051333  0.6022114392730723  0.015040047832055823 
C  2.723311421975695  0.37000176254787676  -0.05353384814584703 
C  1.3559179683363471  -3.140832747900884  4.182714282356748 
H  1.5397234603788785  -3.5947200385196414  5.0195224374973275 
H  0.42768708466157035  -2.8579656148571777  4.1875414591719 
C  2.2079493754942883  -2.1599902603327013  1.530365522144828 
C  3.686805978909426  -2.5915053373679258  1.566000123682918 
H  3.8749906073437024  -3.1785390852005766  0.818575087624706 
H  4.258653109907798  -1.8103289924368304  1.4905553300319438 
C  1.8479882523394586  -1.1610773462484638  -2.73805355403469 
H  1.108582931673133  -0.536539237993967  -2.6701605270861246 
H  2.6746386675160947  -0.6598588112139875  -2.663170169855116 
C  3.729622394025679  -2.3617599791769255  4.055417540466692 
H  3.9325618108491915  -2.8063990250067334  4.892989168462126 
H  4.3090626217466745  -1.5875465102355384  3.9753604545317556 
C  1.838054455907943  2.6504157623106757  -0.18106515298653886 
C  2.2238981507999394  3.1454482401933044  -1.4135068347522604 
H  2.395537533581515  2.564769512696422  -2.119446830581206 
C  1.2959816717598964  -3.3991251962762257  1.6767946444862218 
H  0.36469316589491063  -3.128906698189676  1.652441982709255 
H  1.454641915356953  -4.012080875024093  0.9430828938698979 
C  0.40863547670137845  -2.9378111281772896  -1.7394238351619138 
H  0.31279012772512527  -3.5887178817354077  -1.0259044400141288 
H  -0.3229014291547978  -2.3034775210718252  -1.6737637996231045 
C  1.7622047138801908  -2.195639262527363  -1.5977672715973577 
C  3.975510802103068  -3.320126159916528  2.8836204529179192 
H  4.910652544480132  -3.613427728016214  2.8949541113862383 
C  1.6022750672173198  -4.094051484979946  3.012000778072969 
H  1.023447324908429  -4.880303925979643  3.107186248369735 
C  0.3611592670533652  -3.6503490671719083  -3.1028626108356927 
H  -0.4915675782105473  -4.126950319354284  -3.185843474801194 
C  2.2667890694224697  -1.9185129870838344  4.04570680255249 
H  2.1061064440578017  -1.306014590030509  4.793309228654111 
C  1.7973706475700642  -1.881522769560695  -4.097343434860679 
H  1.8745751045673964  -1.2225191242969327  -4.818431680049039 
C  0.4737267554317901  -2.6217830940037627  -4.230339182388667 
H  0.4315352551178746  -3.068735145265503  -5.088966995340362 
H  -0.26264133555208247  -1.9921639187418827  -4.176637983860799 
C  3.0608834176686117  -4.538735378911859  3.0385413973450834 
H  3.225372383182722  -5.164576790964167  2.317396025603383 
H  3.251201904005267  -4.986904132420263  3.8788394290798136 
C  2.840952723059291  -3.9145135019639454  -3.08568335178922 
H  3.5782646336041726  -4.556609757937835  -3.162905852609746 
C  1.9454489948821874  -1.2072694821727286  2.724039350726484 
H  2.4978051419941694  -0.4159501194105676  2.636038652630991 
H  1.015371480133802  -0.9293691982586904  2.72010123442612 
C  2.113744443369525  5.378729264520263  -0.54609792476777 
H  2.2377895672163968  6.293389842767786  -0.661550615726996 
C  4.954131205188935  -0.29231950106764637  -0.7680828377801037 
H  4.469552372134702  -1.1370507969278334  -0.877927283930933 
C  2.352390510091027  4.511661692852108  -1.5890724503434748 
H  2.603221570126283  4.848260332688181  -2.4183347459906996 
C  2.8959087065691325  -3.2314555367264526  -1.7159960458678527 
H  3.7526912655393865  -2.7924947975171404  -1.6050417486225965 
H  2.8054849981236734  -3.8964867904683627  -1.0156145466137394 
C  1.5332825584982626  3.5172194153049787  0.8588279990752741 
H  1.2285255429522954  3.183129406023572  1.6708987824272499 
C  1.5065380516173321  -4.651256866912105  -3.2069542833654574 
H  1.4625597936101546  -5.112675483113237  -4.0587868041379895 
H  1.4315069756508447  -5.311361177116245  -2.4997579405516355 
C  1.6859586179411643  4.881023798327629  0.6791241434649963 
H  1.5016742112327504  5.464820993910678  1.3787097292752781 
C  2.9642797966501333  -2.860128054452159  -4.18110627970103 
H  3.8015099479779515  -2.378785818140445  -4.078718315320074 
H  2.9671318247047203  -3.2913715005482134  -5.049212503693917 
C  6.271158369717057  -0.6454049538460436  -0.10101000747495961 
H  6.821965440338408  0.1397003902336198  -0.04458031979985984 
H  6.722371095216514  -1.317341804067377  -0.6189509844810303 
H  6.10259011502884  -0.9828083821730819  0.7815908593184776 
C  4.565737076874945  1.8128730449915476  0.7195247902952884 
H  3.7749421996245  2.3313014208877645  0.9777489974875161 
C  5.278821416868704  1.4562676233508915  2.0215384796673534 
H  4.788569959827511  0.7683189366369029  2.477759493341089 
H  5.33309623402139  2.235222035809373  2.5807183411917998 
H  6.163321823456334  1.1404420452796986  1.8245413096818148 
C  5.224326952477219  0.22863971622000528  -2.184103675222256 
H  4.423153421178924  0.6192560979508996  -2.5395476582498344 
H  5.502545524756206  -0.4994740299605135  -2.743925904739813 
H  5.917351064043772  0.8931478517570748  -2.1531990057943515 
C  5.397202750904704  2.7256277921138485  -0.16277376717604436 
H  6.2154669908077995  2.2839935366353457  -0.39922580900222615 
H  5.596239825373507  3.5355343234744483  0.3126533917519417 
H  4.9051990943722386  2.936076181195175  -0.9611744670077665 
Br  -1.654629867976521  1.654629867976521  0.0 
C  -1.352040782177733  -1.3199206589279684  -0.4819701001757076 
C  -1.6380700204479186  -1.599217458033982  -1.8139382277462257 
H  -1.1579680913617836  -1.159339363685303  -2.503515938957912 
C  -2.63068216563725  -2.52632649780156  -2.142289956238523 
H  -2.8368222554424674  -2.694399528648736  -3.0538898079700485 
C  -3.3101544432602585  -3.1961573187854975  -1.1619874135498987 
H  -3.9960123560788676  -3.811990145619169  -1.3868663427944008 
C  -2.9974710358883443  -2.9701089012107795  0.12423560353005347 
H  -3.438659168087169  -3.468581175155742  0.8017084178296768 
C  -2.0389854250767776  -2.015940632791841  0.4912562833419403 
H  -1.8619130127668426  -1.8492165108145995  1.4101568590026907 

-Pd 0
lanl2dz
F 1 1.0
1.472 1.0
****
-H 0
6-31g(d,p)
****
-P 0
6-31+g(d)
****
-N 0
6-31+g(d)
****
-C 0
6-31g(d)
****
-Br 0
6-31+g(d)
****

-Pd 0
lanl2dz


