%chk=AQAHOFIY_PN_Pd_gaussain.chk
%nprocshared=32
%mem=64GB
#p opt rwb97xd/gen pseudo=read

This Gaussian input file was generated using the DART python program. This file was generated on the 2023-08-13 at 16:51:13

0 1
Pd  0.0  0.0  0.0 
C  3.1542048056415206  -1.1293550938471013  0.3619854638108003 
H  3.225667323063379  -1.1347687665488393  1.3373486427096293 
C  3.599508748634711  0.2778138852682408  -0.07235583352369779 
H  4.541523726081834  0.3756890348507911  0.14161483586699664 
H  3.513024134496826  0.3425898312397444  -1.0352965681179482 
C  2.8437777712763133  1.4366762467527754  0.5554555529574896 
H  3.3257437312365443  2.254477049829581  0.3120682280480741 
C  4.22002822027139  -2.122189432733769  -0.13625418169544523 
H  4.3869435399523775  -1.9690180646020312  -1.070825692089622 
H  3.9044238451112587  -3.0181917151023323  -0.010828552854649676 
H  5.0309586062565534  -1.9941742780401501  0.35718124392248174 
C  1.2218367473091596  -2.0602587020177277  -1.7146594262539139 
C  1.988626716656684  -3.0465618423612053  -2.3724527055268316 
H  2.664660714035467  -3.479246645760585  -1.9025506888304538 
C  1.774463536773386  -3.375389272379689  -3.644747098994695 
H  2.300259107937558  -4.0404032114393384  -4.028597392990332 
C  0.7846184111881349  -2.7548938919593255  -4.426840808362151 
H  0.6685686691656987  -2.9703785442871546  -5.32126555756559 
C  0.0013668181010895175  -1.8175334161949384  -3.8032944344641093 
H  -0.680711656592137  -1.4056070427226435  -4.280200155962787 
C  0.20888972509913373  -1.4724351548658308  -2.473784598810835 
H  -0.34084113167760965  -0.8343707560783141  -2.0802842073149055 
C  1.2098462180555285  -3.0460499742220106  1.0072065099843541 
C  1.542421803681305  -3.028244413574541  2.3933969917925833 
H  1.8479698533189783  -2.2348950339048352  2.7707735824024287 
C  1.4194717244086732  -4.135338869340263  3.178056226122785 
H  1.6208183467744202  -4.082025761954685  4.086199656558101 
C  1.020341046020392  -5.290671600600142  2.6646393665935024 
H  0.9842041239845392  -6.0586392792077906  3.1919248750988594 
C  0.6520100783426395  -5.329976943670245  1.30185854112826 
H  0.31700582276803524  -6.127179230666135  0.960483992640185 
C  0.7620599897367848  -4.252527760548416  0.4500211594689102 
H  0.5505318924315499  -4.322659993017537  -0.4507932465101161 
C  2.8071469273553755  1.3872935629367182  2.0335991325236913 
H  2.432216866058261  2.206441793067973  2.368071412703345 
H  3.6972117236646778  1.2806738937695252  2.373149488903385 
H  2.263609406069664  0.6492068750863211  2.3144706230182095 
C  1.4644171581569747  1.958571891642091  -1.4238811881810058 
H  2.2619141050170883  2.490031974951829  -1.5769985927998615 
H  1.5420611310726198  1.1533800601777058  -1.9608083042898017 
C  0.28836168941441276  2.718605509082511  -1.8761281171934108 
H  -0.49929529754618884  2.193416683967613  -1.7440322850616352 
H  0.3886891735444389  2.927279248876102  -2.8079872676280058 
H  0.22586120995764625  3.5321663263901075  -1.3707588001494577 
N  1.422381075872425  1.571283575615809  -8.031522494645652e-17 
H  1.0847955869125185  2.3783378652929663  0.4412304626353529 
P  1.4223810758724251  -1.571283575615809  2.220446049250313e-16 
Br  -1.654629867976521  1.654629867976521  0.0 
C  -1.352040782177733  -1.3199206589279684  -0.4819701001757076 
C  -1.6380700204479186  -1.599217458033982  -1.8139382277462257 
H  -1.1579680913617836  -1.159339363685303  -2.503515938957912 
C  -2.63068216563725  -2.52632649780156  -2.142289956238523 
H  -2.8368222554424674  -2.694399528648736  -3.0538898079700485 
C  -3.3101544432602585  -3.1961573187854975  -1.1619874135498987 
H  -3.9960123560788676  -3.811990145619169  -1.3868663427944008 
C  -2.9974710358883443  -2.9701089012107795  0.12423560353005347 
H  -3.438659168087169  -3.468581175155742  0.8017084178296768 
C  -2.0389854250767776  -2.015940632791841  0.4912562833419403 
H  -1.8619130127668426  -1.8492165108145995  1.4101568590026907 

-Pd 0
lanl2dz
F 1 1.0
1.472 1.0
****
-C 0
6-31g(d)
****
-N 0
6-31+g(d)
****
-H 0
6-31g(d,p)
****
-Br 0
6-31+g(d)
****
-P 0
6-31+g(d)
****

-Pd 0
lanl2dz


