%chk=EJABUJIS_PN_Pd_gaussain.chk
%nprocshared=32
%mem=64GB
#p opt rwb97xd/gen pseudo=read

This Gaussian input file was generated using the DART python program. This file was generated on the 2023-10-04 at 16:41:16

0 1
Pd  0.0  0.0  0.0 
P  1.5317939931661835  1.4648232529899292  1.1630042485209544e-15 
N  1.5317939931661833  -1.4648232529899292  2.220446049250313e-16 
C  1.108990168117423  -2.2719338600797583  -1.00910419850839 
C  1.9734562983083952  -2.914320921508028  -1.8660577287900693 
C  3.366344572158241  -2.706587306289337  -1.7244448350276025 
C  4.338714204890019  -3.2595634201970336  -2.5955467434106865 
C  5.650087800436021  -3.007883789738208  -2.4336470321173014 
C  6.08722657061435  -2.18825346741136  -1.3977955705991127 
C  5.198567526183638  -1.6256203454167661  -0.5229082162579172 
C  3.793101385476148  -1.8712724432145829  -0.6670757027879838 
C  2.8428528053236  -1.2812129099324878  0.2007369746378412 
C  3.2411486201730026  -0.33522817957572126  1.2659802444148942 
C  2.8862472305297295  1.00526673064093  1.1491786634644654 
C  3.473203832830851  1.9504915263108817  2.0212777648662588 
C  4.321889835169002  1.5607612610145492  3.0269647637617423 
C  4.563187365971453  0.18289448706740408  3.2807426092903214 
C  5.253839969532352  -0.254688800671685  4.425088517434373 
C  5.349488631962578  -1.5892794900327856  4.704552889485568 
C  4.781222219243264  -2.5160676825529196  3.8513606248814103 
C  4.157936407015921  -2.1651448637413218  2.6883318756608743 
C  4.00259414769823  -0.7694822875041776  2.378246120165432 
C  1.2787986696050797  3.21835968460859  0.35816701305719073 
C  1.6470982303147776  4.223800632513945  -0.517474668143658 
C  1.4702616657065204  5.568731552322018  -0.1713188645497171 
C  0.9293527846413308  5.886815992918486  1.0428357388823464 
C  0.5764002709523477  4.897952430680949  1.950767332318505 
C  0.7105891683152815  3.5566573727347963  1.5883703161142546 
C  2.231205493781297  1.328683285527679  -1.6683221697462276 
C  1.4711219254062315  0.796293645065463  -2.6776817834690654 
C  2.0012130117635216  0.6539972386051327  -3.954355442973764 
C  3.3028769439232977  1.0233197960507157  -4.19724213729069 
C  4.0490592258782225  1.5644187364055677  -3.1899591389017328 
C  3.553836578224227  1.7169627136696548  -1.9085696258140576 
H  0.1687764912233194  -2.430812246618861  -1.1160136932785671 
H  1.6579234079570222  -3.5037462622361044  -2.5557468347023455 
H  4.052957075591426  -3.830260177156384  -3.310083267775359 
H  6.278753720882422  -3.387668196399196  -3.0507190983514656 
H  7.030092727764997  -2.0424478321143695  -1.2828862306147628 
H  5.512643547032779  -1.046229962810768  0.17343349416251436 
H  3.305750595191343  2.883006525790747  1.8627400755015036 
H  4.751079346573678  2.2288885234691467  3.5676495744094447 
H  5.643986947985658  0.4024141249101596  5.006174251552436 
H  5.821676965250353  -1.8989289027344  5.481030415960387 
H  4.8386738946010475  -3.451982696327912  4.063471779677984 
H  3.821581931177846  -2.8527197523459344  2.1112842267235727 
H  1.9800204136230795  3.9982564248249712  -1.3887668810316212 
H  1.7475926869381433  6.267020508284565  -0.769046334759487 
H  0.8094881732098489  6.806029616303843  1.2925880151665554 
H  0.2270847987188369  5.112356454756173  2.819249494091923 
H  0.38242166439214453  2.8593736404379664  2.162144048558539 
H  0.5607698052068936  0.5271369128827645  -2.5309724423577826 
H  1.486519462481544  0.2668820021132543  -4.664703775838261 
H  3.670911433992587  0.8890850106602957  -5.0732993594575175 
H  4.930594623301839  1.8724841593696737  -3.4175563670551963 
H  4.124551712219725  2.064004535242578  -1.2186311793510007 
Br  -1.654629867976521  1.654629867976521  0.0 
C  -1.352040782177733  -1.3199206589279684  -0.4819701001757076 
C  -1.6380700204479186  -1.599217458033982  -1.8139382277462257 
H  -1.1579680913617836  -1.159339363685303  -2.503515938957912 
C  -2.63068216563725  -2.52632649780156  -2.142289956238523 
H  -2.8368222554424674  -2.694399528648736  -3.0538898079700485 
C  -3.3101544432602585  -3.1961573187854975  -1.1619874135498987 
H  -3.9960123560788676  -3.811990145619169  -1.3868663427944008 
C  -2.9974710358883443  -2.9701089012107795  0.12423560353005347 
H  -3.438659168087169  -3.468581175155742  0.8017084178296768 
C  -2.0389854250767776  -2.015940632791841  0.4912562833419403 
H  -1.8619130127668426  -1.8492165108145995  1.4101568590026907 

-Pd 0
lanl2dz
F 1 1.0
1.472 1.0
****
-H 0
6-31g(d,p)
****
-P 0
6-31+g(d)
****
-N 0
6-31+g(d)
****
-C 0
6-31g(d)
****
-Br 0
6-31+g(d)
****

-Pd 0
lanl2dz


