%chk=WERUHEJO_PN_Ni_gaussain.chk
%nprocshared=32
%mem=64GB
#p opt rwb97xd/gen pseudo=read

This Gaussian input file was generated using the DART python program. This file was generated on the 2023-10-04 at 16:41:16

0 1
Ni  0.0  0.0  0.0 
P  1.4934261263952764  1.3600655884919666  0.0 
N  1.4934261263952764  -1.360065588491967  0.0 
C  1.114359770293749  1.7279263550853956  1.7329268605666208 
C  0.2526078710148565  2.791569812607185  2.0068250156540866 
C  -0.16421469524901133  3.0357171116857407  3.30637336204445 
C  0.28310933961957163  2.233177352400853  4.34354249125911 
C  1.1183148050873926  1.1676002271043255  4.066346188077578 
C  1.5307093015031321  0.9006923455495073  2.781712535206077 
C  1.7772453202865206  2.9530598884229633  -0.796064674235893 
C  2.421105572597528  3.964583719803338  -0.08659520058421244 
C  2.801042325767359  5.129124579745371  -0.7378700804285409 
C  2.54032326926016  5.280639721179462  -2.084628516633882 
C  1.8690457162539624  4.300065154567023  -2.783817687132725 
C  1.4914615115704748  3.1280476956388537  -2.1477314867313195 
C  3.117723983489344  0.4525522005761953  -0.1455107975145037 
C  4.252799735751017  1.0857119851383705  0.6581389855631973 
C  3.5024383154058825  0.4596253778416146  -1.6538574761601825 
C  2.7712812818873185  -0.9636181049571066  0.23621588511641095 
C  3.7243316479865767  -1.8236252324787434  0.7622837137184377 
C  3.361841998389804  -3.118043442818162  1.0794654292647516 
C  2.073038673190388  -3.5244697429004264  0.8914434317314289 
C  1.164054379994718  -2.6331726905692197  0.3555969619014126 
H  -0.06156754308705947  3.3522784000846215  1.297994719248142 
H  -0.7600966033555414  3.7559846879621075  3.493515180343593 
H  0.019747088240775756  2.421443067059447  5.241323653476751 
H  1.3986180083972597  0.6140057818284645  4.797407146120046 
H  2.1067412493720257  0.12493263665938481  2.595792312806533 
H  2.5823608839706473  3.858651273442608  0.8679055125438642 
H  3.236665665448826  5.851299600796425  -0.24453344597425253 
H  2.853462776917404  6.0877563038563  -2.5259223877812715 
H  1.6615989389506587  4.424874628048531  -3.7191813596771324 
H  1.0171109676670795  2.443203208813209  -2.6540286330427483 
H  4.0213924608034475  1.0968438600480124  1.5868882329181273 
H  5.051624922304464  0.5941043702869708  0.5453956737971213 
H  4.395931620144396  1.9892611377660623  0.3742084439587656 
H  2.8024751451337417  0.06418358845236982  -2.170950989431448 
H  3.645389781383487  1.3490525718207562  -1.9606260941530425 
H  4.301970966155061  -0.046254839128570646  -1.7889928026451374 
H  4.6307041849340855  -1.5065858016979778  0.8771277105035986 
H  4.01788738015213  -3.732899415262273  1.4474967733349677 
H  1.8007481550713327  -4.412493574412237  1.139093100436126 
H  0.25583880105363166  -2.9210200071343575  0.192495078052775 
Br  -1.5839191898578664  1.5839191898578664  0.0 
C  -1.2937473829822488  -1.2398794889499034  -0.4598005675376139 
C  -1.601562203225019  -1.4938654694550033  -1.7919791134336869 
H  -1.1309417375171225  -1.0428217585005106  -2.480879663633267 
C  -2.60218398542082  -2.411889969420291  -2.121542410022959 
H  -2.8231586547736818  -2.5626138747145775  -3.03270050271447 
C  -3.2683208079706407  -3.09759503004543  -1.143064365570095 
H  -3.9596020908062854  -3.707191723557817  -1.3683280760515548 
C  -2.9347449854640226  -2.896087320001541  0.14198826503765638 
H  -3.3668350933519986  -3.405606940434718  0.8171022443470677 
C  -1.9675509241539992  -1.9516175659140573  0.5112421903797603 
H  -1.7755298364628027  -1.8022912010877177  1.4301324877763764 

-Ni 0
lanl2dz
F 1 1.0
3.130 1.0
****
-H 0
6-31g(d,p)
****
-P 0
6-31+g(d)
****
-N 0
6-31+g(d)
****
-C 0
6-31g(d)
****
-Br 0
6-31+g(d)
****

-Ni 0
lanl2dz


