%chk=AHUBEGAC_PN_Pd_gaussain.chk
%nprocshared=32
%mem=64GB
#p opt rwb97xd/gen pseudo=read

This Gaussian input file was generated using the DART python program. This file was generated on the 2023-10-04 at 16:41:16

0 1
Pd  0.0  0.0  0.0 
P  1.450537033308699  1.5453291930847608  2.4120108874317187e-15 
N  1.4505370333086982  -1.5453291930847608  0.0 
C  1.565025876847198  -2.2376681780645886  1.3132703965986423 
C  1.2980045566729386  -2.6367997208841323  -1.0055260317449493 
C  2.7233536114924783  -0.8518650594907878  -0.24985284412894893 
C  2.820127831798815  0.417141475670447  0.4933842001592019 
C  2.1148810625167713  2.227883114100439  -1.586437504524449 
C  1.472611235775129  2.8770587230834344  1.2972067485620862 
C  1.1237948795363848  3.0200360647325284  -2.404750360778273 
C  3.427329939007182  3.0043425347658883  -1.4581736956812472 
C  0.8542926445436776  4.1875247513330685  0.8269884284795972 
C  2.850041298331461  3.114752258961556  1.92372429481906 
H  1.6646045970570038  -1.5926325769379317  2.001625219172408 
H  0.7779465196695753  -2.7491491968255195  1.4672715425429301 
H  2.320138309381445  -2.8120880259340586  1.3019751495520189 
H  1.2210241446793484  -2.2553217628943325  -1.8700070574113574 
H  2.0602472904629976  -3.2016622006108837  -0.9706304191093219 
H  0.5179907239844016  -3.1386254862098926  -0.8054129085626716 
H  2.7953202870509526  -0.6734988471436415  -1.1760708432533586 
H  3.4356844886119613  -1.4191450500085843  0.02244020363450544 
H  2.76407895033699  0.24251459926923435  1.4216929402480019 
H  3.651729314384346  0.8298277743916667  0.2921665990171972 
H  2.2984841405377776  1.4318039482469263  -2.065601861958505 
H  0.9193400548752209  2.5299876734973146  1.9818453590164025 
H  0.31659079651091315  2.538651769186384  -2.478180792811368 
H  0.9633717091271855  3.855918571696306  -1.979151252522834 
H  1.487654054502832  3.1761107872442715  -3.2692291643273457 
H  4.041799333385857  2.4908859369415066  -0.9417494074041262 
H  3.7902401266601835  3.150752824568516  -2.324104450844502 
H  3.264269552976124  3.8311462576991935  -1.031786695115995 
H  0.004450849466457241  4.0067741279384315  0.4447383068545169 
H  0.7523162472094247  4.764909300847018  1.5733288510545156 
H  1.4196865435581791  4.5871960496970825  0.18384853528277711 
H  3.2108131683654966  2.2917389840610793  2.204008074459893 
H  3.417317420432971  3.520119806409189  1.2781206681488044 
H  2.751443897952756  3.6983444081526007  2.668907960797569 
Br  -1.654629867976521  1.654629867976521  0.0 
C  -1.352040782177733  -1.3199206589279684  -0.4819701001757076 
C  -1.6380700204479186  -1.599217458033982  -1.8139382277462257 
H  -1.1579680913617836  -1.159339363685303  -2.503515938957912 
C  -2.63068216563725  -2.52632649780156  -2.142289956238523 
H  -2.8368222554424674  -2.694399528648736  -3.0538898079700485 
C  -3.3101544432602585  -3.1961573187854975  -1.1619874135498987 
H  -3.9960123560788676  -3.811990145619169  -1.3868663427944008 
C  -2.9974710358883443  -2.9701089012107795  0.12423560353005347 
H  -3.438659168087169  -3.468581175155742  0.8017084178296768 
C  -2.0389854250767776  -2.015940632791841  0.4912562833419403 
H  -1.8619130127668426  -1.8492165108145995  1.4101568590026907 

-Pd 0
lanl2dz
F 1 1.0
1.472 1.0
****
-H 0
6-31g(d,p)
****
-P 0
6-31+g(d)
****
-N 0
6-31+g(d)
****
-C 0
6-31g(d)
****
-Br 0
6-31+g(d)
****

-Pd 0
lanl2dz


