%chk=DINOPEWA_PN_Ni_gaussain.chk
%nprocshared=32
%mem=64GB
#p opt rwb97xd/gen pseudo=read

This Gaussian input file was generated using the DART python program. This file was generated on the 2023-08-11 at 15:55:49

0 0
Ni  0.0  0.0  0.0 
P  1.195407087564737  -1.6282204687940758  4.816914634179456e-15 
C  2.9047514462435435  -1.111059239010705  -0.3954089602701948 
C  3.3123573473338466  0.2012560960142573  -0.1010222573526304 
C  4.612536399450852  0.5800335630834292  -0.438155870148571 
H  4.894191015990853  1.470337890895768  -0.262641509310716 
C  5.5071389163253155  -0.3085706724790859  -1.0238126888933485 
H  6.3848794812359255  -0.02569944967648989  -1.2516441661316469 
C  5.107126104068433  -1.6055463987233678  -1.2702746445040736 
H  5.719353160269369  -2.226939013784491  -1.6464974901727796 
C  3.811254403488199  -2.0040115098274653  -0.9703133788911152 
H  3.538360136221285  -2.8943790569654246  -1.158315825408145 
C  2.4481314239282272  1.1778490608341246  0.6647211685924105 
H  2.2052108065487435  0.7612440690651703  1.529329909286829 
H  2.9941475673230364  1.9786397553312236  0.8669024109447089 
N  1.1954070875647334  1.6282204687940758  -8.837719607897112e-17 
C  1.5052373030749278  2.257134298110092  -1.2983181747368413 
H  1.9213628642572482  1.596460460864497  -1.8903590669984276 
H  2.1220807650704265  3.0059336182064635  -1.1595438557270379 
H  0.6778976351371188  2.5870580831843952  -1.7071472097855038 
C  0.5852642799836646  2.6374124526149214  0.9069528952205036 
H  0.34727271621871103  2.2115413139763267  1.756756807221027 
H  -0.22080841923977634  3.0067646174635856  0.4894839000984012 
H  1.2275743235309116  3.35896966953785  1.071792728588465 
C  0.9518986273839977  -3.10447747211025  -1.053336878676702 
C  0.8161937690258705  -4.370699813932893  -0.4755999900438358 
H  0.828950645556758  -4.456937871180754  0.47019642017524915 
C  0.6635216464810879  -5.502465554701908  -1.2636976940242823 
H  0.5744304883042207  -6.358713828028536  -0.861069788930906 
C  0.6420688767143092  -5.372556878908966  -2.6326446194465354 
H  0.5718597829924552  -6.148249848139006  -3.1764563429739487 
C  0.7212058373836232  -4.126261737131923  -3.2257837692579114 
H  0.6748584811809466  -4.055577973964865  -4.171869335260065 
C  0.8681746427588652  -2.968473982875154  -2.4555549484912222 
C  0.8640959405889015  -1.6103682764423062  -3.1338398033591237 
H  -0.03423524458370175  -1.2069499786202114  -3.0324806955852797 
H  1.51129591362159  -1.0215950799537399  -2.6704528505829908 
N  1.2006725582144442  -1.6525115803222932  -4.548650484123821 
C  2.6338089065077273  -1.8994645837431412  -4.724983581703474 
H  2.8410919124896514  -1.9522247268849513  -5.681349778683905 
H  2.875506235430038  -2.744512567950748  -4.291356961696732 
H  3.143837665258679  -1.1671873290031431  -4.320068359172374 
C  0.8274985859388375  -0.3915771587567704  -5.186860371956421 
H  1.037653941134643  -0.43413307567834136  -6.142822369432002 
H  1.3270041441601885  0.3439065382925213  -4.7746293460975116 
H  -0.1339142615035782  -0.23865376799236587  -5.070337312737182 
C  1.3552567862920006  -2.200260568922429  1.7236103062067152 
C  2.3437930185037166  -3.102402510478976  2.1335791036648355 
H  2.9309150957960917  -3.4845112463191517  1.491604898302568 
C  2.4697637846832947  -3.43921508316833  3.4673008126231073 
H  3.123970227734138  -4.072894762778408  3.737542211228183 
C  1.6399509088925392  -2.852503585365131  4.413950937810554 
H  1.734233555401708  -3.0794557562057827  5.331316254747031 
C  0.6820314722811349  -1.9427146019990538  4.0269552676696225 
H  0.12337130396028817  -1.5358164713726234  4.678852458662551 
C  0.5311014892606908  -1.6190168349574965  2.6851881023842914 
H  -0.13755335577817562  -0.9981462837177607  2.421226027818054 
Br  -1.5839191898578664  1.5839191898578664  0.0 
C  -1.2937473829822488  -1.2398794889499034  -0.4598005675376139 
C  -1.601562203225019  -1.4938654694550033  -1.7919791134336869 
H  -1.1309417375171225  -1.0428217585005106  -2.480879663633267 
C  -2.60218398542082  -2.411889969420291  -2.121542410022959 
H  -2.8231586547736818  -2.5626138747145775  -3.03270050271447 
C  -3.2683208079706407  -3.09759503004543  -1.143064365570095 
H  -3.9596020908062854  -3.707191723557817  -1.3683280760515548 
C  -2.9347449854640226  -2.896087320001541  0.14198826503765638 
H  -3.3668350933519986  -3.405606940434718  0.8171022443470677 
C  -1.9675509241539992  -1.9516175659140573  0.5112421903797603 
H  -1.7755298364628027  -1.8022912010877177  1.4301324877763764 

-Ni 0
lanl2dz
F 1 1.0
3.130 1.0
****
-P 0
6-31+g(d)
****
-H 0
6-31g(d,p)
****
-N 0
6-31+g(d)
****
-Br 0
6-31+g(d)
****
-C 0
6-31g(d)
****

-Ni 0
lanl2dz
