%chk=NEKECIHE_PN_Pd_gaussain.chk
%nprocshared=32
%mem=64GB
#p opt rwb97xd/gen pseudo=read

This Gaussian input file was generated using the DART python program. This file was generated on the 2023-08-11 at 15:55:49

0 0
Pd  0.0  0.0  0.0 
C  3.226119026855273  1.109803734447016  -0.35856077909678874 
H  3.301777576355664  1.1294945848748157  -1.3348678590142373 
C  3.644966362018407  -0.31804613070469623  0.05917829306786164 
H  4.568520363187362  -0.4482868574398724  -0.20895148898611687 
H  3.621868044150329  -0.36141894469968794  1.0296444267983693 
C  2.862959130179256  -1.467019184718455  -0.45804154462360147 
H  3.2987786752897152  -2.287090670095421  -0.14165628426633897 
C  4.209766266873496  2.1197134596349434  0.1349348583463371 
H  4.094407692210431  2.2397214466695443  1.082115613165415 
H  4.064980252722668  2.9540791259825365  -0.3126182724958629 
H  5.100346869468845  1.810412995766607  -0.04116245376192318 
C  1.2734009134504232  1.9747824753902268  1.6837656241250476 
C  0.11976463983006336  2.6887849456735364  2.0108410139309707 
H  -0.48848467608901713  2.9090502344618  1.3461542740007815 
C  -0.13346326541647335  3.0593830255664356  3.312618529939056 
H  -0.8809995491410416  3.571120031060046  3.523307451631024 
C  0.7234307777249487  2.680222874781767  4.253475728926103 
H  0.5708067456989854  2.9696707527208477  5.125185767186957 
C  1.7990627050134205  1.8954777860681156  4.024416582115661 
H  2.321681397459382  1.575477390006272  4.72238521953886 
C  2.0975763918254544  1.5877155042768987  2.6922734529089913 
H  2.8719525222980904  1.1118933663943513  2.494430733419199 
C  1.2838751754461875  2.995023980929644  -1.0056569496276277 
C  0.9727361421822297  2.887660585297002  -2.2677322022404978 
H  0.7962835878099218  2.0459888304833025  -2.619130285906744 
C  0.8968026535852243  4.019896616713154  -3.129526513240803 
H  0.691679659731522  3.947687190353918  -4.0338014195261795 
C  1.1435761878091502  5.172701027853793  -2.5469202118147853 
H  1.050641669481068  5.943007525588908  -3.0719584721827258 
C  1.4990631978654168  5.340962771956461  -1.2777711972570625 
H  1.707086855649282  6.188664811439691  -0.9566326756527583 
C  1.5593751375401486  4.207024035788334  -0.4128419212176149 
H  1.7747150531472062  4.286045823700365  0.48673232128910915 
C  2.8380831460038602  -1.521262577418847  -1.9387412743999397 
H  2.3978534605426383  -2.3257601455321795  -2.2227161798730117 
H  3.73848291737611  -1.5132991794563169  -2.2728443962137104 
H  2.3630544435779712  -0.7590627357107748  -2.27737434007983 
C  1.4099558835580925  -1.9170429410922507  1.3901006317274789 
H  0.4746629782607452  -1.9032004742026682  1.6497608662857448 
H  1.8623286159650871  -1.2440383879764405  1.9221610535406672 
C  1.9586563913050998  -3.240806338704025  1.7853948638401218 
C  2.9598605480128235  -3.362496778796005  2.6711453554467703 
H  3.302594747334025  -2.610837887851559  3.095925922657444 
C  3.4867711096570004  -4.653556781346929  2.9689493511234937 
H  4.1556895983009206  -4.7659202733705035  3.6049248783339967 
C  2.9864899990876026  -5.6906638703395735  2.2916808693759316 
H  3.346249211364058  -6.533664021124368  2.445148536847097 
C  2.0282558680734275  -5.583386592406602  1.4405645754425718 
H  1.7324751288359992  -6.3405633716797585  0.9909385761657384 
C  1.4349259475055716  -4.369327677054148  1.173911363550853 
H  0.7042467045516014  -4.307645007397339  0.6002736536849169 
N  1.4867808513698328  -1.5104908804756139  -1.0689657506770603e-15 
H  1.1481167231237228  -2.3060937043877976  -0.46163033351619126 
P  1.4867808513698315  1.5104908804756148  1.4808512519597407e-16 
Br  -1.654629867976521  1.654629867976521  0.0 
C  -1.352040782177733  -1.3199206589279684  -0.4819701001757076 
C  -1.6380700204479186  -1.599217458033982  -1.8139382277462257 
H  -1.1579680913617836  -1.159339363685303  -2.503515938957912 
C  -2.63068216563725  -2.52632649780156  -2.142289956238523 
H  -2.8368222554424674  -2.694399528648736  -3.0538898079700485 
C  -3.3101544432602585  -3.1961573187854975  -1.1619874135498987 
H  -3.9960123560788676  -3.811990145619169  -1.3868663427944008 
C  -2.9974710358883443  -2.9701089012107795  0.12423560353005347 
H  -3.438659168087169  -3.468581175155742  0.8017084178296768 
C  -2.0389854250767776  -2.015940632791841  0.4912562833419403 
H  -1.8619130127668426  -1.8492165108145995  1.4101568590026907 

-Pd 0
lanl2dz
F 1 1.0
1.472 1.0
****
-P 0
6-31+g(d)
****
-H 0
6-31g(d,p)
****
-N 0
6-31+g(d)
****
-Br 0
6-31+g(d)
****
-C 0
6-31g(d)
****

-Pd 0
lanl2dz
