%chk=OVARUDUH_PN_Pd_gaussain.chk
%nprocshared=32
%mem=64GB
#p opt rwb97xd/gen pseudo=read

This Gaussian input file was generated using the DART python program. This file was generated on the 2023-10-04 at 16:41:16

0 1
Pd  0.0  0.0  0.0 
P  1.565106788688875  1.4291748458463718  1.2469485433945345e-15 
N  1.5651067886888737  -1.4291748458463718  2.248201624865942e-15 
C  1.4373240846347446  0.45129836413964886  1.5464120334081526 
H  2.054257059030105  0.8207385145414818  2.2272644552844554 
H  0.5145526623880465  0.5046573847112994  1.9006443543621754 
C  1.7910645138209182  -0.9780961749100516  1.2619312774788964 
C  2.3122810814561197  -1.8161877656493655  2.2412246375884606 
H  2.4685141583619874  -1.4857068161891256  3.1175064459836945 
C  2.601880705928001  -3.1323065564793806  1.933276840178108 
H  2.9668396241365746  -3.711332609453276  2.5924699439022945 
C  2.352499327696647  -3.5963997511837764  0.658148417304333 
H  2.536403282050343  -4.499256482639783  0.42628751495630024 
C  1.8327187679949055  -2.7233284166116523  -0.2758882813882916 
H  1.6555481352038162  -3.048173596576361  -1.1506578544360273 
C  3.3248353035240026  1.8599332878866912  -0.18234672656025738 
C  3.67781564364525  2.7528190000224133  -1.1969192693347126 
H  3.0128644943708554  3.1090108553993026  -1.7742480848652216 
C  5.012648942755095  3.1175289454254327  -1.3568840445562989 
H  5.25452557002397  3.7362569845943026  -2.036429864002856 
C  5.9908070314477  2.5836014471786384  -0.5314755153168917 
H  6.901245517712288  2.8312303716790637  -0.649613775330458 
C  5.641681741434631  1.6962564706799967  0.4579151125727967 
H  6.313604781157076  1.3308784124825377  1.0215725557757034 
C  4.30952971752909  1.3259534937292763  0.6408792086840381 
H  4.076591727702612  0.7107646856171939  1.3257264057063007 
C  0.7942945242097885  3.0304742786283048  0.37473706715628397 
C  0.023913524293866617  3.673414967565377  -0.585828206772407 
H  -0.1457897201216507  3.2488036670210954  -1.4179207450666633 
C  -0.49969935768257767  4.939398290220701  -0.3341505625786395 
H  -1.022863656389031  5.38025308264246  -0.9939603825705712 
C  -0.2557948878706944  5.549996806235871  0.8774339833140106 
H  -0.6116743159128746  6.41395639353799  1.0508444910842585 
C  0.5006030028243269  4.917983289747562  1.8373213495858314 
H  0.6572464932474079  5.343859341071116  2.671783113729138 
C  1.038806129435914  3.6573992014983197  1.5939064548929511 
H  1.569317272992821  3.2284903512050698  2.2546952219752154 
Br  -1.654629867976521  1.654629867976521  0.0 
C  -1.352040782177733  -1.3199206589279684  -0.4819701001757076 
C  -1.6380700204479186  -1.599217458033982  -1.8139382277462257 
H  -1.1579680913617836  -1.159339363685303  -2.503515938957912 
C  -2.63068216563725  -2.52632649780156  -2.142289956238523 
H  -2.8368222554424674  -2.694399528648736  -3.0538898079700485 
C  -3.3101544432602585  -3.1961573187854975  -1.1619874135498987 
H  -3.9960123560788676  -3.811990145619169  -1.3868663427944008 
C  -2.9974710358883443  -2.9701089012107795  0.12423560353005347 
H  -3.438659168087169  -3.468581175155742  0.8017084178296768 
C  -2.0389854250767776  -2.015940632791841  0.4912562833419403 
H  -1.8619130127668426  -1.8492165108145995  1.4101568590026907 

-Pd 0
lanl2dz
F 1 1.0
1.472 1.0
****
-H 0
6-31g(d,p)
****
-P 0
6-31+g(d)
****
-N 0
6-31+g(d)
****
-C 0
6-31g(d)
****
-Br 0
6-31+g(d)
****

-Pd 0
lanl2dz


