%chk=QUHIXUGA_PN_Pd_gaussain.chk
%nprocshared=32
%mem=64GB
#p opt rwb97xd/gen pseudo=read

This Gaussian input file was generated using the DART python program. This file was generated on the 2023-10-04 at 09:55:46

0 1
Pd  0.0  0.0  0.0 
P  1.3568338531301456  1.628220468794076  2.9731667122024763e-15 
C  3.106988935431264  1.111059239010704  0.12314044950626246 
C  3.463524305110072  -0.2012560960142593  -0.23138547567596546 
C  4.800435311936891  -0.5800335630834328  -0.10179535156912944 
H  5.051165797623702  -1.4703378908957718  -0.3192093286402413 
C  5.775640698458356  0.308570672479082  0.33670439374421757 
H  6.678215515749071  0.025699449676485075  0.4244220117171471 
C  5.419107851882308  1.6055463987233642  0.6427077839958562 
H  6.082651596686955  2.226939013784488  0.9185252901084187 
C  4.092266202193073  2.004011509827463  0.5491585355608215 
H  3.8521417783454344  2.8943790569654233  0.7775364287015 
C  2.4901497737264826  -1.1778490608341265  -0.8525066093673974 
H  2.1149653064309533  -0.7612440690651721  -1.6684694249009167 
H  2.997815437845703  -1.9786397553312265  -1.1376144084211048 
N  1.356833853130146  -1.628220468794076  1.3322676295501878e-15 
C  1.8659512536706098  -2.2571342981100937  1.233865599553703 
H  2.3695692189368818  -1.5964604608644983  1.7535211064428928 
H  2.453491262700285  -3.0059336182064644  1.0003042457028648 
H  1.1127524613273363  -2.587058083184396  1.7670857091284446 
C  0.6123242250038332  -2.6374124526149227  -0.8003394363762055 
H  0.24432411195028614  -2.211541313976328  -1.6024507690896024 
H  -0.11851784276840283  -3.0067646174635856  -0.26191262584758246 
H  1.2209397349123656  -3.358969669537852  -1.063629245911667 
C  1.2811015772962993  3.1044774721102506  1.0784616694889988 
C  1.0566895098265743  4.370699813932895  0.5290665975752188 
H  0.9213341725689468  4.456937871180755  -0.4070811045306045 
C  1.0291826771767933  5.502465554701911  1.3313446928633494 
H  0.8782034980518364  6.358713828028539  0.9476107330735919 
C  1.222144506551568  5.372556878908971  2.6867935625585777 
H  1.2378706993313577  6.1482498481390095  3.234893183382904 
C  1.3930945655099554  4.126261737131925  3.260250437070584 
H  1.4953182115709842  4.055577973964866  4.201938443689844 
C  1.4177636074750657  2.968473982875155  2.4765134247625036 
C  1.5198422493131878  1.6103682764423068  3.147085517109812 
H  0.6167149539236296  1.2069499786202125  3.187504266529886 
H  2.0865844266469034  1.0215950799537403  2.588159245113501 
N  2.0736002022375093  1.6525115803222932  4.491825347527271 
C  3.5166768377186446  1.8994645837431403  4.441795574092744 
H  3.8710164803376887  1.9522247268849509  5.353961110036897 
H  3.6875643231202435  2.744512567950748  3.9756978249887838 
H  3.95708359988186  1.167187329003142  3.9620794538389448 
C  1.804858643193802  0.39157715875677135  5.180555083311933 
H  2.1619720409082053  0.43413307567834214  6.0918720617051925 
H  2.233727319108268  -0.3439065382925215  4.695259420654523 
H  0.8370541608427442  0.23865376799236748  5.215864720783054 
C  1.24508348062144  2.2002605689224284  -1.7273958052772294 
C  2.157315941919258  3.102402510478976  -2.2869583431933616 
H  2.8376364635524123  3.4845112463191503  -1.744734033668757 
C  2.0730957568772297  3.439215083168329  -3.6239658941480752 
H  2.676972764398255  4.072894762778407  -3.9932206076409567 
C  1.1054105486690124  2.85250358536513  -4.429149852110827 
H  1.0550248667451436  3.0794557562057827  -5.349969935084575 
C  0.21982415052984505  1.942714601999054  -3.8970671262338725 
H  -0.43393717240978535  1.5358164713726243  -4.453544676473765 
C  0.2806509947642821  1.619016834957497  -2.5482086901358367 
H  -0.33847883363738296  0.9981462837177617  -2.18289576374725 
Br  -1.654629867976521  1.654629867976521  0.0 
C  -1.352040782177733  -1.3199206589279684  -0.4819701001757076 
C  -1.6380700204479186  -1.599217458033982  -1.8139382277462257 
H  -1.1579680913617836  -1.159339363685303  -2.503515938957912 
C  -2.63068216563725  -2.52632649780156  -2.142289956238523 
H  -2.8368222554424674  -2.694399528648736  -3.0538898079700485 
C  -3.3101544432602585  -3.1961573187854975  -1.1619874135498987 
H  -3.9960123560788676  -3.811990145619169  -1.3868663427944008 
C  -2.9974710358883443  -2.9701089012107795  0.12423560353005347 
H  -3.438659168087169  -3.468581175155742  0.8017084178296768 
C  -2.0389854250767776  -2.015940632791841  0.4912562833419403 
H  -1.8619130127668426  -1.8492165108145995  1.4101568590026907 

-Pd 0
lanl2dz
F 1 1.0
1.472 1.0
****
-P 0
6-31+g(d)
****
-N 0
6-31+g(d)
****
-C 0
6-31g(d)
****
-H 0
6-31g(d,p)
****
-Br 0
6-31+g(d)
****

-Pd 0
lanl2dz


