%chk=ONELOYUH_PN_Ni_gaussain.chk
%nprocshared=32
%mem=64GB
#p opt rwb97xd/gen pseudo=read

This Gaussian input file was generated using the DART python program. This file was generated on the 2023-08-13 at 16:51:13

0 1
Ni  0.0  0.0  0.0 
P  1.3188752547151679  1.5299242015537895  0.0 
N  1.3188752547151679  -1.5299242015537895  0.0 
C  1.2778275280210294  2.8928886921358985  1.2138838253908526 
C  0.3769392317850606  2.8470930932893386  2.282533132147458 
H  -0.21376559139058848  2.133145837673226  2.364371192212804 
C  0.36542427980536574  3.8697182294961237  3.219815025005207 
H  -0.22739526503689467  3.8321995439679752  3.9361472911284205 
C  1.2148751592004357  4.9303801226487085  3.1026196671238377 
H  1.1760569718999045  5.6257668084201455  3.718186499877622 
C  2.1270052286960155  4.972603162152492  2.076734824045875 
H  2.716812541004771  5.689440815865131  2.0122947544704495 
C  2.1774307346952835  3.954945124964263  1.138039880152529 
H  2.810765598384134  3.980877622116543  0.4572928522282875 
C  1.4331163595138223  2.258164952872363  -1.6708040543682596 
C  1.2518431528165386  3.5907482259060512  -1.9546351572525436 
H  1.0522846017453282  4.185759144796986  -1.268096352016506 
C  1.3644944719231664  4.053415424896114  -3.2601937860709844 
H  1.2682175612676028  4.961834798606594  -3.435657337676659 
C  1.6129650445882016  3.1970324820879914  -4.278827365817286 
H  1.6583302925357053  3.5118476699978527  -5.152267055629923 
C  1.7963384542382896  1.8755179763715355  -4.017890182161361 
H  1.9885070996927257  1.2903177526671707  -4.714474362200329 
C  1.7007581371293372  1.3904951633155833  -2.717943808730265 
H  1.816235184076136  0.4825253608971325  -2.551269037020062 
C  2.9620930738008986  0.7853266039453248  0.3204524873907213 
H  3.28754075802604  0.3497960303892773  -0.4839938901450741 
H  3.593048468319884  1.478388024192896  0.5674560660931732 
C  2.8476420644228835  -0.23973432286874274  1.4534467339654562 
H  3.7008057896699276  -0.3052786517303674  1.9115038252506984 
H  2.187211360380897  0.06607609213406196  2.095458949763904 
C  2.44843733370129  -1.6156010180044835  0.9387000387980544 
H  3.2063425570685338  -2.025539153738949  0.4917514430253275 
H  2.2008843955654673  -2.1806857484257547  1.687545049641466 
C  1.2773655388068774  -2.27222366243337  -1.0476344657671008 
C  0.17152822417670444  -2.131016375967416  -2.040190260581937 
H  -0.40195406871562644  -2.8999838377574756  -1.9923160248480347 
H  0.5412214787902137  -2.062537241580498  -2.9244031962749863 
H  -0.33716408235108  -1.3410415008902428  -1.8440232806229224 
C  2.3174434823978576  -3.309877729469962  -1.3928884424538486 
H  3.0885849090551165  -2.876998453929776  -1.7673021212915994 
H  1.9536075270240598  -3.926002834911573  -2.033277911466114 
H  2.57022889270234  -3.786559763298392  -0.5995175928744093 
Br  -1.5839191898578664  1.5839191898578664  0.0 
C  -1.2937473829822488  -1.2398794889499034  -0.4598005675376139 
C  -1.601562203225019  -1.4938654694550033  -1.7919791134336869 
H  -1.1309417375171225  -1.0428217585005106  -2.480879663633267 
C  -2.60218398542082  -2.411889969420291  -2.121542410022959 
H  -2.8231586547736818  -2.5626138747145775  -3.03270050271447 
C  -3.2683208079706407  -3.09759503004543  -1.143064365570095 
H  -3.9596020908062854  -3.707191723557817  -1.3683280760515548 
C  -2.9347449854640226  -2.896087320001541  0.14198826503765638 
H  -3.3668350933519986  -3.405606940434718  0.8171022443470677 
C  -1.9675509241539992  -1.9516175659140573  0.5112421903797603 
H  -1.7755298364628027  -1.8022912010877177  1.4301324877763764 

-Ni 0
lanl2dz
F 1 1.0
3.130 1.0
****
-C 0
6-31g(d)
****
-N 0
6-31+g(d)
****
-H 0
6-31g(d,p)
****
-Br 0
6-31+g(d)
****
-P 0
6-31+g(d)
****

-Ni 0
lanl2dz


