%chk=KAJEHAWI_PN_Pd_gaussain.chk
%nprocshared=32
%mem=64GB
#p opt rwb97xd/gen pseudo=read

This Gaussian input file was generated using the DART python program. This file was generated on the 2023-08-11 at 15:55:49

0 0
Pd  0.0  0.0  0.0 
P  1.4213137373570972  -1.5722491087610775  -2.7604127565082402e-15 
N  1.4213137373570979  1.572249108761077  8.501077230563595e-17 
C  2.7840842219196578  -1.0339649556430688  -1.1202398122309463 
C  3.626749172838509  -2.1021608608857267  -1.7793451365273187 
H  3.1498866970894923  -2.4457223022565837  -2.550469539737152 
H  3.7459377520724857  -2.835368571786189  -1.1552810490681045 
C  4.998412694284001  -1.6091921794719082  -2.227574322414281 
H  5.555377804118114  -1.4469711239287575  -1.4497527197533797 
H  5.427176645399611  -2.290508978464467  -2.7678185113087803 
C  4.868631021427635  -0.3477382922041036  -3.022034987071477 
H  4.303101673816586  -0.5022869630514821  -3.7945004395869657 
H  5.74314290860807  -0.0668362089788725  -3.337513653259568 
C  4.267681766715555  0.7334938551237231  -2.1548227945569365 
H  3.960924767342373  1.4550415943963777  -2.7258377271866325 
H  4.960258642411477  1.0905991998629085  -1.578404401364978 
C  3.1045937576389173  0.26954071567828125  -1.2881677204121462 
C  2.551959248887134  1.4239671420543447  -0.5253394003942637 
H  3.1321655618335664  2.14331131830337  -0.4224372113323899 
C  1.1783377852545134  2.800372419017905  0.8483111112697265 
C  2.4555370235524956  3.382542022358475  1.4230464578749018 
H  2.877097960784891  2.732824185466234  1.9902903195638928 
H  2.2469650968598356  4.167758342800738  1.93393929547085 
H  3.050152848090813  3.616269990752473  0.7063283905715523 
C  0.5228812752233167  3.8680410477651392  -0.054441746741126236 
H  -0.2891688608702909  3.5176007855129523  -0.4260160852832159 
H  1.1262920573290018  4.100827276080069  -0.7645249178876671 
H  0.32595655191910233  4.650056832126981  0.46660486956158104 
C  0.2311518658412237  2.4162425844804836  1.9712886730596049 
H  0.6442284167445902  1.7523926867868167  2.5275739743447385 
H  -0.5801024840666404  2.0611939112839828  1.5976798142018322 
H  0.025994831808334284  3.1930758949235334  2.497241512364546 
C  0.7711169665865334  -3.233376728708028  -0.644942640495209 
C  1.6665966394417524  -4.466605813841922  -0.7404704326970241 
H  1.1596459693183137  -5.204717779390729  -1.0862723765537325 
H  1.999770752901835  -4.688404425815562  0.13153585503642864 
H  2.40305308458984  -4.281726205146164  -1.3281909570011954 
C  -0.4106087703060022  -3.6339324208631076  0.27542871403948416 
H  -0.7734292502446116  -4.473185909796404  -0.01600733494968213 
H  -1.0925916188849072  -2.9586813336886424  0.231675388292336 
H  -0.09885561403980825  -3.716476414227026  1.1799099735012994 
C  0.23191150703422148  -2.9429534570676883  -2.0706556290306994 
H  -0.11468816195535991  -3.752393235349919  -2.4518993500160278 
H  0.9458558051530128  -2.6097448980163684  -2.620325716773019 
H  -0.46759295909642473  -2.2869611818914444  -2.0211196141285184 
C  2.292975905755715  -1.8035229622323832  1.6711170901176375 
C  3.1283614149215513  -0.5779948514113591  2.003874194719811 
H  3.565164774156954  -0.7078942031501788  2.8487768777422566 
H  2.5650826405043814  0.1945001579558663  2.0458330173180235 
H  3.7944734310415145  -0.4519074464986526  1.3183072699757694 
C  3.643494995193578  -2.625570322792476  1.510949846087537 
H  4.061906215426685  -2.723781922429939  2.369307104156532 
H  4.235174068131549  -2.1571490364351646  0.917975796794793 
H  3.4493161936259717  -3.4931663623761047  1.1488272768922843 
C  1.0330091285253524  -1.766593216382024  2.7845335459630025 
H  1.2801057667716065  -2.283244957810005  3.55782129282497 
H  0.2463337876231284  -2.14495135103459  2.3862501795533286 
H  0.8632198902792334  -0.8616639261875857  3.0433405094010126 
Br  -1.654629867976521  1.654629867976521  0.0 
C  -1.352040782177733  -1.3199206589279684  -0.4819701001757076 
C  -1.6380700204479186  -1.599217458033982  -1.8139382277462257 
H  -1.1579680913617836  -1.159339363685303  -2.503515938957912 
C  -2.63068216563725  -2.52632649780156  -2.142289956238523 
H  -2.8368222554424674  -2.694399528648736  -3.0538898079700485 
C  -3.3101544432602585  -3.1961573187854975  -1.1619874135498987 
H  -3.9960123560788676  -3.811990145619169  -1.3868663427944008 
C  -2.9974710358883443  -2.9701089012107795  0.12423560353005347 
H  -3.438659168087169  -3.468581175155742  0.8017084178296768 
C  -2.0389854250767776  -2.015940632791841  0.4912562833419403 
H  -1.8619130127668426  -1.8492165108145995  1.4101568590026907 

-Pd 0
lanl2dz
F 1 1.0
1.472 1.0
****
-P 0
6-31+g(d)
****
-H 0
6-31g(d,p)
****
-N 0
6-31+g(d)
****
-Br 0
6-31+g(d)
****
-C 0
6-31g(d)
****

-Pd 0
lanl2dz
