%chk=HUNAFARO_PN_Pd_gaussain.chk
%nprocshared=32
%mem=64GB
#p opt rwb97xd/gen pseudo=read

This Gaussian input file was generated using the DART python program. This file was generated on the 2023-10-04 at 16:41:16

0 1
Pd  0.0  0.0  0.0 
P  1.3461586375683956  -1.6370573974360227  2.1949467470287592e-16 
N  1.3461586375683956  1.6370573974360223  -1.449705589477943e-16 
C  2.6722753762734923  1.5519264483206916  -0.28938219853495795 
C  3.4579536353039817  2.703242454681831  -0.3764368755115121 
H  4.375670822530635  2.6308478091516134  -0.6133351439040599 
C  2.9181012712153476  3.929303155512232  -0.12581606059941017 
H  3.4674086189198476  4.7056799655071755  -0.13306220853807701 
C  1.5453173552237596  4.0341669680266055  0.14092019644074552 
H  1.1338484888302525  4.878779788056967  0.2817847279211966 
C  0.81795903116598  2.8708731043034037  0.19139241699629342 
H  -0.11261361140184012  2.9350304577135518  0.37017309522458336 
C  3.3500472361064357  0.2014734413201233  -0.43108989734390674 
H  3.581388510782615  -0.11459882090501544  0.47947215418421535 
H  4.203754377885622  0.34407743026127646  -0.912881634937363 
C  2.603494168923007  -0.9325006959993664  -1.138371703818211 
H  3.243324934083958  -1.6371915619438433  -1.4106220030062895 
H  2.1607898415433326  -0.5843908002238452  -1.9524952257622081 
C  2.4066670469024167  -2.3161543684653765  1.3545861315068322 
C  2.499275665968703  -1.6190514038488908  2.5811262043938292 
C  3.3740398706826626  -2.0886891521673916  3.554364444243377 
H  3.419510661457978  -1.632798478346856  4.3875846016506195 
C  4.1837427145421415  -3.2038977745769484  3.354438750173631 
C  4.058593996900932  -3.855717898093237  2.1781657269974635 
H  4.598867954944885  -4.624222687216962  2.0385119789151616 
C  3.1924599258504784  -3.4809014982767  1.1637483339120647 
C  1.72013422045738  -0.37245118800046717  2.8963002828540114 
H  1.8995347421289683  -0.10037269173173333  3.8209667117309847 
H  0.7621733607678498  -0.5496742441097987  2.7898437204156705 
H  1.9904328729813394  0.344556860610652  2.286782976561053 
C  5.224073344950693  -3.617105555843175  4.399050356913116 
H  4.932701805413052  -4.440866941431797  4.842841417616907 
H  5.320807472206311  -2.9033675941626567  5.063513569348727 
H  6.086261138818768  -3.7703205655263052  3.957571627060016 
C  3.1686712198551996  -4.292239287703175  -0.11673832705542594 
H  3.798718929777702  -5.038168047997437  -0.04334277005569231 
H  3.424469949735994  -3.7205848567310484  -0.8701199377556972 
H  2.2644244101588225  -4.641094407807369  -0.264494350049518 
C  0.35832979347007066  -3.02059724371592  -0.6805691430877555 
C  -0.5363675559881818  -3.6341198371039445  0.24305650092330772 
C  -1.429839651872453  -4.596929331425051  -0.23285029827311005 
H  -2.0066272972553767  -5.031463820633638  0.3843945881551607 
C  -1.5037552156672873  -4.942195441755242  -1.570558791363594 
C  -0.6198951682617833  -4.356902139577395  -2.468882261515716 
H  -0.6537356674554675  -4.608412255010652  -3.3843736391097714 
C  0.32351548207887215  -3.3990054723890437  -2.0537084427201426 
C  -0.5816667272061522  -3.282443267362596  1.7037906538005505 
H  -1.3768768056925607  -3.682139023922391  2.112347655039981 
H  -0.6172622275087654  -2.3078419873470897  1.8035668300669512 
H  0.22201105928144904  -3.625682356523463  2.1472558194882887 
C  -2.571020437657303  -5.921860246124251  -2.0584875638408997 
H  -3.323320631611937  -5.422144535922972  -2.442506114374416 
H  -2.889130216427623  -6.460579454370258  -1.3042260154921232 
H  -2.1875597117173475  -6.510765831542297  -2.741482932145151 
C  1.1898265162156703  -2.8360915718481716  -3.1403030325790993 
H  0.9690056581088928  -1.8916241802823088  -3.2791573983504505 
H  1.0381680660030972  -3.333873599085764  -3.970038151661292 
H  2.132771468583785  -2.9173714281369008  -2.8800923261021913 
Br  -1.654629867976521  1.654629867976521  0.0 
C  -1.352040782177733  -1.3199206589279684  -0.4819701001757076 
C  -1.6380700204479186  -1.599217458033982  -1.8139382277462257 
H  -1.1579680913617836  -1.159339363685303  -2.503515938957912 
C  -2.63068216563725  -2.52632649780156  -2.142289956238523 
H  -2.8368222554424674  -2.694399528648736  -3.0538898079700485 
C  -3.3101544432602585  -3.1961573187854975  -1.1619874135498987 
H  -3.9960123560788676  -3.811990145619169  -1.3868663427944008 
C  -2.9974710358883443  -2.9701089012107795  0.12423560353005347 
H  -3.438659168087169  -3.468581175155742  0.8017084178296768 
C  -2.0389854250767776  -2.015940632791841  0.4912562833419403 
H  -1.8619130127668426  -1.8492165108145995  1.4101568590026907 

-Pd 0
lanl2dz
F 1 1.0
1.472 1.0
****
-H 0
6-31g(d,p)
****
-P 0
6-31+g(d)
****
-N 0
6-31+g(d)
****
-C 0
6-31g(d)
****
-Br 0
6-31+g(d)
****

-Pd 0
lanl2dz


