%chk=IVIKAFOM_PN_Ni_gaussain.chk
%nprocshared=32
%mem=64GB
#p opt rwb97xd/gen pseudo=read

This Gaussian input file was generated using the DART python program. This file was generated on the 2023-10-04 at 16:41:16

0 1
Ni  0.0  0.0  0.0 
P  1.3145413972180555  1.533649541127308  0.0 
N  1.3145413972180555  -1.533649541127308  0.0 
C  1.120852560684281  -2.4069167798835363  -1.1527456026015837 
C  1.3188037252373264  -2.1080727234616816  -2.4691725152683968 
H  1.6476508221528547  -1.297869390380349  -2.76150353639707 
C  1.033336464197346  -3.098608135406815  -3.387603721487472 
H  1.16698282567098  -2.956812556189835  -4.224973050863314 
C  0.5620548647347854  -4.336023610134537  -2.996888867773946 
H  0.32996363730028366  -4.921402134318162  -3.6107272386604117 
C  0.3673879316102795  -4.6283804869673135  -1.6654486168739906 
H  0.11690844435256786  -5.535921921744467  -1.458790588658917 
C  0.6616379248890432  -3.6563588842325485  -0.7100364360470939 
C  0.5974564770775533  -3.639538379085695  0.7293542414145477 
C  0.16654869266212802  -4.5625518297072  1.6756557691011487 
H  -0.14580111476740343  -5.3333221154213035  1.364162375176116 
C  0.18647460087625234  -4.194684214016264  2.995776924718217 
H  -0.10751539140196154  -4.801503813307459  3.6364951142183664 
C  0.6274777406039156  -2.9541120500514157  3.4073375724311887 
H  0.6301512736096188  -2.7329984573392645  4.310192467383426 
C  1.0650790580991858  -2.041689304518938  2.4635045626453485 
H  1.3140021939518427  -1.2460662744340547  2.711970911344371 
C  1.0259572434525168  -2.381539939245359  1.151861375763015 
C  2.641948318430808  -0.9019489380756613  0.019765971281470632 
C  3.75568610091398  -1.725190634527351  0.06356929413304169 
H  3.5917692490591766  -2.6584947086431896  0.15066797906449886 
C  5.020980097529778  -1.1960310526039122  0.006225515162056883 
H  5.710623387871189  -1.72929170183858  0.18170876810911712 
C  5.196643471050244  0.1693098214662112  -0.11509264834548866 
H  6.051560706614115  0.5303359947554567  -0.17827431131751958 
C  4.086388726850249  0.9940346175042167  -0.14262578804089238 
H  4.241545966270609  1.931158221338491  -0.2411222965684679 
C  2.7962391261313115  0.48025923801248593  -0.05386584666568643 
C  1.4819029570631492  2.614777996837753  1.4701341641290542 
H  0.6698320368649077  3.163218329810917  1.4972692288367258 
C  1.46843546370135  1.7749304107632757  2.754312418417543 
H  0.6696554008432883  1.2001276762663053  2.736461435383208 
H  2.3019689109046126  1.2560909245172143  2.719927539395207 
C  1.4993742704797544  2.6585041501743936  3.9870841033852957 
H  0.6903194555024867  3.049770654619028  4.0480896675723015 
H  1.5417636437644304  2.0777323922763724  4.782396511348699 
C  2.645018694394383  3.635398133984242  3.979560251349717 
H  3.5156332800992915  3.0952693185111118  3.9611554733433927 
H  2.5178662320090535  4.1335043926269295  4.704766943548774 
C  2.625782222162158  4.473416772228865  2.7355377635743823 
H  3.3068155248214772  5.131014879198392  2.6598318828315066 
H  1.856320370149501  4.9591430186909085  2.6452778511261776 
C  2.658075009494604  3.6004895818252844  1.4870245253023864 
H  3.493670883350453  3.106260219331655  1.4605730065512534 
H  2.618384684752524  4.164352799470402  0.6981979791537547 
C  1.5350044810555716  2.6224612645491883  -1.465159755659417 
H  2.494791695365886  2.9970096568616658  -1.4241699390873166 
C  0.5734694991745165  3.8102470272997815  -1.4736932441601793 
H  0.7250573249786011  4.359340697279304  -0.6895137987164612 
H  -0.3416280775883016  3.490120145744352  -1.448505455284572 
C  0.7944885889270051  4.641530270838516  -2.737566157461491 
H  0.16156565725505967  5.376615855757306  -2.7537761978192985 
H  1.6900114442062781  5.0167664897839455  -2.7238922529710514 
C  0.6223691477747808  3.8073056284475513  -3.974543208180323 
H  0.7632949882122526  4.360148861052553  -4.7599505723295685 
H  -0.28416736629980077  3.4629750523683294  -4.008916643075294 
C  1.6097381063325131  2.642133389236699  -3.9882527905599234 
H  1.4644121226711555  2.100357893780771  -4.778832521514548 
H  2.5180265741449603  2.983439600964343  -4.01936274194246 
C  1.4255942288151404  1.7913501594246863  -2.742688051879683 
H  2.098673735602441  1.0940387846148232  -2.729635308728724 
H  0.554573269142999  1.3656746465430856  -2.7730731723305966 
Br  -1.5839191898578664  1.5839191898578664  0.0 
C  -1.2937473829822488  -1.2398794889499034  -0.4598005675376139 
C  -1.601562203225019  -1.4938654694550033  -1.7919791134336869 
H  -1.1309417375171225  -1.0428217585005106  -2.480879663633267 
C  -2.60218398542082  -2.411889969420291  -2.121542410022959 
H  -2.8231586547736818  -2.5626138747145775  -3.03270050271447 
C  -3.2683208079706407  -3.09759503004543  -1.143064365570095 
H  -3.9596020908062854  -3.707191723557817  -1.3683280760515548 
C  -2.9347449854640226  -2.896087320001541  0.14198826503765638 
H  -3.3668350933519986  -3.405606940434718  0.8171022443470677 
C  -1.9675509241539992  -1.9516175659140573  0.5112421903797603 
H  -1.7755298364628027  -1.8022912010877177  1.4301324877763764 

-Ni 0
lanl2dz
F 1 1.0
3.130 1.0
****
-H 0
6-31g(d,p)
****
-P 0
6-31+g(d)
****
-N 0
6-31+g(d)
****
-C 0
6-31g(d)
****
-Br 0
6-31+g(d)
****

-Ni 0
lanl2dz


