%chk=ANUREHEW_PN_Ni_gaussain.chk
%nprocshared=32
%mem=64GB
#p opt rwb97xd/gen pseudo=read

This Gaussian input file was generated using the DART python program. This file was generated on the 2023-10-04 at 16:41:16

0 1
Ni  0.0  0.0  0.0 
P  1.4422729448686196  -1.4141954435296418  2.1527103307563403e-16 
N  1.4422729448686196  1.4141954435296418  -6.216668986621906e-17 
H  1.1783252600555874  2.0819702651221883  -0.5748297376866405 
H  1.5825739506993042  1.8014633013817951  0.8231281334260906 
C  1.572086033647633  -2.8162801900701506  1.1218338092160183 
C  2.7323494302585  0.8787831365077875  -0.4806234111377411 
H  3.4642792106569527  1.5073070997738087  -0.2594424803000243 
H  2.706121100944719  0.7611745020287486  -1.4624020337596604 
C  2.973287134265698  -0.4551561882376469  0.19623801536361368 
H  3.1790578984775717  -0.32476549800902604  1.1553082007501545 
H  3.7330356418405923  -0.92607309936687  -0.22979611243630238 
C  1.497361223613206  -2.0663909687096584  -1.6777625632014177 
H  2.3162877999667515  -2.590175742157398  -1.798427610527389 
H  1.4875703709954848  -1.3238075762904702  -2.3172271396309587 
H  0.7174653381943179  -2.6391512075479064  -1.8314855826638616 
C  1.625242177364221  -2.579025147611114  2.4958121384530307 
H  1.5466611090215248  -1.692298902849517  2.8281757383690316 
C  1.658905371254879  -4.126640128987008  0.6442770135369569 
H  1.6054539395537428  -4.298587935856677  -0.28891563332746584 
C  1.7940138886538008  -3.6439066722194444  3.376311257144381 
H  1.835965268816681  -3.4831859698300254  4.3118852774794565 
C  1.8234230130910754  -5.182715399087181  1.5399676685108357 
H  1.8816686563127438  -6.073450060808353  1.2170350324175365 
C  1.9008784974319828  -4.932968122912623  2.892678977692841 
H  2.0286094748375394  -5.654371278090173  3.4984950100912084 
Br  -1.5839191898578664  1.5839191898578664  0.0 
C  -1.2937473829822488  -1.2398794889499034  -0.4598005675376139 
C  -1.601562203225019  -1.4938654694550033  -1.7919791134336869 
H  -1.1309417375171225  -1.0428217585005106  -2.480879663633267 
C  -2.60218398542082  -2.411889969420291  -2.121542410022959 
H  -2.8231586547736818  -2.5626138747145775  -3.03270050271447 
C  -3.2683208079706407  -3.09759503004543  -1.143064365570095 
H  -3.9596020908062854  -3.707191723557817  -1.3683280760515548 
C  -2.9347449854640226  -2.896087320001541  0.14198826503765638 
H  -3.3668350933519986  -3.405606940434718  0.8171022443470677 
C  -1.9675509241539992  -1.9516175659140573  0.5112421903797603 
H  -1.7755298364628027  -1.8022912010877177  1.4301324877763764 

-Ni 0
lanl2dz
F 1 1.0
3.130 1.0
****
-H 0
6-31g(d,p)
****
-P 0
6-31+g(d)
****
-N 0
6-31+g(d)
****
-C 0
6-31g(d)
****
-Br 0
6-31+g(d)
****

-Ni 0
lanl2dz


