%chk=IYORODAX_PN_Pd_gaussain.chk
%nprocshared=32
%mem=64GB
#p opt rwb97xd/gen pseudo=read

This Gaussian input file was generated using the DART python program. This file was generated on the 2023-10-04 at 16:41:16

0 1
Pd  0.0  0.0  0.0 
P  1.3892422349971942  1.6006579936076288  -2.0119895386207434e-16 
N  1.3892422349971942  -1.6006579936076293  1.6653345369377348e-16 
C  3.4355955370986964  -0.2576482353800642  -0.4859442892800475 
C  3.120779077470649  1.0448945491037775  -0.06603027268099311 
C  4.133038752789899  1.8986451725708087  0.34407669221013754 
C  5.465757507621849  1.4948734595746165  0.3549253927485321 
C  5.77582334419895  0.2108925915767783  -0.07200409511013205 
C  4.800347053813753  -0.6341310020963884  -0.4645033473795546 
C  2.4366743221769616  -1.2163827502661848  -0.9976036939091348 
C  1.9004461838607698  -0.8519159857669552  -2.3478680240509857 
C  2.0192406118204307  -1.9762013060457708  1.2935697761169018 
C  0.6467487110778845  -2.7746770829476164  -0.5620630879209296 
C  1.081990826419925  2.549032437781439  -1.519709332591379 
C  -0.123128872778687  2.420055460298136  -2.2090914544097062 
C  -0.37362527555576475  3.215106679910484  -3.310220856609434 
C  0.5376363045771623  4.141437630008164  -3.6920872252055554 
C  1.7288952337259853  4.2724513323964874  -3.0521810652807275 
C  2.0006418248467974  3.482320389340062  -1.9500170742889187 
C  1.349183832550843  2.864977819005685  1.3041078841487421 
C  1.674104681743085  2.340339896130418  2.7037213742385218 
C  1.4727667760059173  3.380421754121687  3.787696035561773 
C  0.0225847884980801  3.670038731546809  4.008252013705617 
H  3.950276430390442  2.802193207676255  0.6708128422888342 
H  6.107477671248035  2.079293194293606  0.6711079591031079 
H  6.619203769004029  -0.09234416914187715  -0.08012727210374587 
H  4.926687601780206  -1.5013875869157725  -0.7207870027830203 
H  -0.7676783888379484  1.8177672551662158  -1.9214958888897518 
H  -1.2419698908901442  3.117885514851195  -3.7173472056514902 
H  0.41471829068913313  4.612292892662574  -4.319676823185382 
H  2.422624632843461  4.959589730725452  -3.1831232752132412 
H  2.726023824864032  3.5929384168681864  -1.4298059574941977 
H  2.0011052132460314  3.633115375504463  1.0385808089029789 
H  0.638259612533163  3.1616564111199787  1.2806520453585473 
H  1.063293870240892  1.6735009965886787  2.7976201208222475 
H  2.6282366465227325  2.0189965691647913  2.737729167468797 
H  1.859701296801838  3.0928995464808624  4.5489330989854 
H  2.0911783243548543  4.175142747038445  3.5952534459770407 
H  2.8104397850606793  -1.884735064922005  -1.1177850246120995 
H  -0.3002908159787214  4.323644295120095  3.2783555270037015 
H  -0.026405546317618267  4.021966121563696  4.703353063374346 
H  -0.5300962829150369  2.914185844901634  3.9207313472787013 
H  1.4044287398313384  -1.5306302703540402  -2.737814167916975 
H  2.438558113380404  -0.5929524085034854  -2.9027283460776974 
H  1.4527723306615357  -0.1292311151576997  -2.264903399335169 
H  1.230190290882582  -2.196166971044854  1.9468339931450558 
H  2.717984403836014  -1.1729318317828137  1.8888544515764554 
H  2.727236863924186  -2.708546000965872  1.0771018689587253 
H  -0.015450077985213362  -3.0487779381909936  0.08058934140478591 
H  1.25442555111513  -3.510360411118131  -0.6173332311657873 
H  0.1322671105817208  -2.473286531732678  -1.3422609400003058 
Br  -1.654629867976521  1.654629867976521  0.0 
C  -1.352040782177733  -1.3199206589279684  -0.4819701001757076 
C  -1.6380700204479186  -1.599217458033982  -1.8139382277462257 
H  -1.1579680913617836  -1.159339363685303  -2.503515938957912 
C  -2.63068216563725  -2.52632649780156  -2.142289956238523 
H  -2.8368222554424674  -2.694399528648736  -3.0538898079700485 
C  -3.3101544432602585  -3.1961573187854975  -1.1619874135498987 
H  -3.9960123560788676  -3.811990145619169  -1.3868663427944008 
C  -2.9974710358883443  -2.9701089012107795  0.12423560353005347 
H  -3.438659168087169  -3.468581175155742  0.8017084178296768 
C  -2.0389854250767776  -2.015940632791841  0.4912562833419403 
H  -1.8619130127668426  -1.8492165108145995  1.4101568590026907 

-Pd 0
lanl2dz
F 1 1.0
1.472 1.0
****
-H 0
6-31g(d,p)
****
-P 0
6-31+g(d)
****
-N 0
6-31+g(d)
****
-C 0
6-31g(d)
****
-Br 0
6-31+g(d)
****

-Pd 0
lanl2dz


