%chk=RUYUSENA_PN_Pd_gaussain.chk
%nprocshared=32
%mem=64GB
#p opt rwb97xd/gen pseudo=read

This Gaussian input file was generated using the DART python program. This file was generated on the 2023-10-04 at 16:41:16

0 1
Pd  0.0  0.0  0.0 
P  1.5987812373805255  1.391401651213624  -2.645020326794189e-15 
N  1.5987812373805241  -1.391401651213624  1.6653345369377348e-16 
N  1.5024945533447567  -2.6245125279352854  0.4069753680361193 
N  2.753255219171619  -3.0100628825234725  0.6836820193788504 
C  2.3081669917050665  2.9162986054103857  -0.6914951125227593 
C  3.569881682931743  2.6064283715897383  -1.0709453544975922 
C  4.698028310964118  3.3705772024270533  -1.7109218931216583 
H  5.19429446732189  3.9017067503583847  -1.0379708582252454 
H  4.362605491330171  3.9773047560875354  -2.4177941218150787 
C  5.586571707195699  2.2614616184014404  -2.3062570460269356 
H  5.304984497681207  2.0495502664616034  -3.231756993275405 
H  6.535408049700753  2.5433673964044146  -2.3187753314602784 
C  5.395195793784648  1.0409297802232031  -1.3881192612912574 
H  5.480298447041678  0.19524757985089547  -1.8968078048835728 
H  6.0568527150620035  1.0429696081891429  -0.6518792612724744 
C  4.007434998766542  1.2172638422002011  -0.8663278428131425 
C  3.093902045824687  0.43719587688386596  -0.27560017850694146 
C  2.9093631028282587  -0.9650313292562323  0.017033570193196235 
C  3.6546082810836493  -2.0191856805326247  0.4548105087956757 
H  4.596764051486024  -2.0537583037274025  0.5746059094711267 
C  1.651716720807994  4.217669175454359  -0.5944707276363184 
C  0.2776706562138376  4.309306076193112  -0.3745620629676632 
H  -0.24890821379627437  3.5189157679447614  -0.3554886708740402 
C  -0.32915892908056565  5.539735972913961  -0.18663911687818452 
H  -1.2665294981307504  5.585324890351764  -0.038147780816290056 
C  0.41492256723880927  6.697814546843011  -0.21137438404040182 
H  -0.0039017327498778176  7.538177061132194  -0.07004660787253353 
C  1.7762319506590238  6.629081701142718  -0.4452147110459314 
H  2.2899305455075236  7.426886105091617  -0.4826897252611016 
C  2.3924403318895027  5.409989871317391  -0.6234558997607271 
H  3.3312277356997226  5.375703538569121  -0.768479648967386 
C  2.970053474090348  -4.307699624168242  1.2398099393736524 
C  4.0935991178177416  -5.018971376028519  0.9018373495577581 
H  4.737051463108189  -4.648214345123721  0.309414296853947 
C  4.2753473976126894  -6.280429031673146  1.4321440964572798 
H  5.046698841657436  -6.7825021996837425  1.1993011800223576 
C  3.3423907908196115  -6.817062630137492  2.2989347983227257 
H  3.468725324876777  -7.6877527999696955  2.6571649668765858 
C  2.2285275459460907  -6.081798571691344  2.6412004496481174 
H  1.5869871565640097  -6.447452856028461  3.2392374494545004 
C  2.0342198485052423  -4.814482625600613  2.121506499808974 
H  1.2719507842404731  -4.302702910966172  2.366240308984625 
C  1.4085443224349619  1.6365131613965587  1.7746377894567378 
C  2.52723976868537  1.8612586256032775  2.569227479080992 
H  3.393791895320175  1.8830105510617536  2.180835144497033 
C  2.3691569780053046  2.049844344019759  3.9244152033834907 
H  3.1283532440028354  2.2159485417533267  4.470099466662846 
C  1.1101384159313064  2.001040808433345  4.492951029226911 
H  1.0092027495668023  2.1319841955143386  5.4287460284843965 
C  0.003004104616764147  1.7635478496519794  3.7142223465399358 
H  -0.858421606077634  1.7209503294116506  4.111169857206039 
C  0.14755552681791295  1.5835024725450224  2.3497064585701137 
H  -0.6156607583383005  1.4248867846827133  1.8067001919061354 
Br  -1.654629867976521  1.654629867976521  0.0 
C  -1.352040782177733  -1.3199206589279684  -0.4819701001757076 
C  -1.6380700204479186  -1.599217458033982  -1.8139382277462257 
H  -1.1579680913617836  -1.159339363685303  -2.503515938957912 
C  -2.63068216563725  -2.52632649780156  -2.142289956238523 
H  -2.8368222554424674  -2.694399528648736  -3.0538898079700485 
C  -3.3101544432602585  -3.1961573187854975  -1.1619874135498987 
H  -3.9960123560788676  -3.811990145619169  -1.3868663427944008 
C  -2.9974710358883443  -2.9701089012107795  0.12423560353005347 
H  -3.438659168087169  -3.468581175155742  0.8017084178296768 
C  -2.0389854250767776  -2.015940632791841  0.4912562833419403 
H  -1.8619130127668426  -1.8492165108145995  1.4101568590026907 

-Pd 0
lanl2dz
F 1 1.0
1.472 1.0
****
-H 0
6-31g(d,p)
****
-P 0
6-31+g(d)
****
-N 0
6-31+g(d)
****
-C 0
6-31g(d)
****
-Br 0
6-31+g(d)
****

-Pd 0
lanl2dz


