%chk=COBADAWO_PN_Pd_gaussain.chk
%nprocshared=32
%mem=64GB
#p opt rwb97xd/gen pseudo=read

This Gaussian input file was generated using the DART python program. This file was generated on the 2023-08-11 at 15:55:49

0 0
Pd  0.0  0.0  0.0 
P  1.6231655591774983  -1.362876945105464  -1.18089846526226e-15 
N  1.623165559177498  1.3628769451054636  -1.6690428884551291e-16 
N  3.787900858654492  1.7064837884685402  0.8114876896123508 
C  2.7996774806171234  0.9083800352967305  0.3929977324168556 
C  1.8598468283926881  -3.133518468293945  -0.2000991583277354 
C  1.767951715375958  -3.9748711040678724  0.939913635670618 
C  3.027234787948951  -0.55062608931427  0.2914029479666573 
C  1.2155312113522396  -3.642190573644112  2.3387729071526113 
C  2.581871418169878  -5.812569033433162  -0.43656332302154705 
C  2.5965066711017726  -4.962272226254928  -1.5225542157431 
H  2.8753006974716495  -5.308224134600927  -2.340826033644843 
C  2.225634499796704  -3.6444310180297665  -1.4754870036404109 
C  0.6953666655135133  -2.4374971301924377  -3.0455837668203523 
H  0.12441695655980856  -3.208919835503991  -3.0629877771484413 
H  0.634778509606754  -1.9760855792388492  -3.8853653253285465 
H  0.4211213526202455  -1.8502664210119633  -2.3386570856493303 
C  4.976239894966344  1.3314377787494125  1.603678124653834 
H  5.189177622267124  2.066744879364026  2.198999753756716 
H  5.724832529665748  1.2224154561298881  0.9971551651176879 
C  1.3857228939086181  2.792720979813385  0.07013827143712964 
H  1.1376991805891754  3.0388179816039944  0.9758124089396422 
H  0.6557426795389295  3.033223815507501  -0.5207196409681216 
C  2.1416151816697706  -2.8793192970157264  -2.809701820882531 
C  2.6375454192190664  3.5311588252948205  -0.3358967067188767 
H  2.884838589611903  3.2919551824635356  -1.242966519430845 
H  2.4828451212759823  4.487512580988546  -0.3031491604469839 
C  2.9870701839200917  -7.2960888275430715  -0.5969513235658466 
C  2.1464412479498307  -5.304084212049398  0.753949210841284 
H  2.1002176803730706  -5.8779508166675285  1.4834167782523051 
C  3.738972188899817  3.1542459522399113  0.615087250641151 
H  4.588425076455715  3.4612616197238317  0.2627899589365802 
H  3.593025899193459  3.5897455269678913  1.4680614360258577 
C  4.850583947567117  0.09241802273664186  2.42184063118494 
H  3.967182379362294  0.06951732351204377  2.820429087199796 
H  5.498482196303228  0.12725613498919558  3.143379656615591 
C  5.0653111244463975  -1.1840410047989522  1.6400988000588612 
H  6.016090528810902  -1.3341665577586628  1.5302204464815456 
H  4.702430571589491  -1.9308589318725071  2.143450702965597 
C  4.4135644633332145  -1.1395240509992055  0.2903580210378535 
H  4.367032641588125  -2.0420371131046178  -0.0633439047332624 
H  4.971616949959992  -0.6190322651871654  -0.3078073516408695 
C  2.5013798286944224  -3.784858542090049  -4.003984398157053 
H  3.3985828417976993  -4.109349939929182  -3.9003650176974345 
H  2.4359304422123254  -3.2808179920851153  -4.819112419856637 
H  1.8935952941410672  -4.525988842685044  -4.036917923594481 
C  3.0723820861622273  -1.6721428194118082  -2.9036093361373427 
H  2.8131866188627965  -1.0181783597437113  -2.2508319734611817 
H  3.012167792070872  -1.290675760432562  -3.780834564742208 
H  3.9753400309676925  -1.9508218126723555  -2.736080297973813 
C  1.0321610866532307  -2.2275426504225426  2.7190445346674483 
H  1.8835786201904456  -1.7849956529360391  2.719358542773168 
H  0.6453973727018724  -2.18099985341669  3.596385977674358 
H  0.44938759210483026  -1.7998263719327843  2.088412780656664 
C  4.34960484554053  -7.371876594275017  -1.271049662309254 
H  4.935548690251739  -6.719333084610481  -0.8789387228549383 
H  4.2531711472648634  -7.19245058969096  -2.2092358382444437 
H  4.719560221782295  -8.24880627181646  -1.1484991819475316 
C  2.0886613668192817  -4.245968924987729  3.3962395893998205 
H  2.9697070441068885  -3.8694798796320624  3.3377248625354 
H  2.137184473824611  -5.197080718062848  3.266765904197077 
H  1.718233991079411  -4.059635367206142  4.26196908788475 
C  2.049330729076133  -7.979070286979214  -1.547156233517099 
H  2.4275801716765466  -8.81790328955197  -1.8235847649085792 
H  1.910244392233469  -7.422510923550183  -2.3151916466870675 
H  1.2088580706487488  -8.136199656412806  -1.1090512898136102 
C  -0.12651734855804087  -4.278744451905563  2.437312812333611 
H  -0.4805582644096915  -4.14566211409702  3.3202019000826786 
H  -0.047246201746677485  -5.220132252622024  2.2643248533727673 
H  -0.7166708455485222  -3.8832045449932155  1.7918410220672305 
C  3.044895750041623  -8.01324835064614  0.6650313396769311 
H  2.153482563392566  -8.164591427319904  0.9899303144538899 
H  3.5343996096256647  -7.4945805849768785  1.306125701146423 
H  3.483510324245316  -8.85668100546374  0.5340475541023567 
Br  -1.654629867976521  1.654629867976521  0.0 
C  -1.352040782177733  -1.3199206589279684  -0.4819701001757076 
C  -1.6380700204479186  -1.599217458033982  -1.8139382277462257 
H  -1.1579680913617836  -1.159339363685303  -2.503515938957912 
C  -2.63068216563725  -2.52632649780156  -2.142289956238523 
H  -2.8368222554424674  -2.694399528648736  -3.0538898079700485 
C  -3.3101544432602585  -3.1961573187854975  -1.1619874135498987 
H  -3.9960123560788676  -3.811990145619169  -1.3868663427944008 
C  -2.9974710358883443  -2.9701089012107795  0.12423560353005347 
H  -3.438659168087169  -3.468581175155742  0.8017084178296768 
C  -2.0389854250767776  -2.015940632791841  0.4912562833419403 
H  -1.8619130127668426  -1.8492165108145995  1.4101568590026907 

-Pd 0
lanl2dz
F 1 1.0
1.472 1.0
****
-P 0
6-31+g(d)
****
-H 0
6-31g(d,p)
****
-N 0
6-31+g(d)
****
-Br 0
6-31+g(d)
****
-C 0
6-31g(d)
****

-Pd 0
lanl2dz
