%chk=ILUMISIP_PN_Ni_gaussain.chk
%nprocshared=32
%mem=64GB
#p opt rwb97xd/gen pseudo=read

This Gaussian input file was generated using the DART python program. This file was generated on the 2023-10-04 at 16:41:16

0 1
Ni  0.0  0.0  0.0 
P  1.4666599631475579  1.3888875233437736  -2.454862725191691e-15 
N  1.4666599631475594  -1.3888875233437732  2.220446049250313e-16 
N  2.809922311922697  0.4353732050556611  -0.4638428043881944 
C  2.6259331398705728  -0.9322763152070666  -0.3749989284444626 
C  1.2048321115673737  -2.8470637694116983  -0.13234950525090816 
H  1.957220451625933  -3.2397123790608613  -0.6612054828899259 
C  -0.0791126891351932  -3.0693869703981984  -0.9302949940231893 
H  0.024921653066803717  -2.686980907219432  -1.8386373845823458 
H  -0.8299830959511669  -2.60198482365192  -0.4856759712801144 
C  -0.3975892769125047  -4.561692700821976  -1.0366224127921848 
H  -1.2586706199529174  -4.685360137610871  -1.5101776637880884 
H  0.3099424745867896  -5.015385299689129  -1.5599922403076105 
C  -0.4858513039487653  -5.184287497352501  0.35409536731871954 
H  -1.223337516680688  -4.758938881952938  0.8572716598922052 
H  -0.6887497193397656  -6.1504137188405394  0.2701659494423665 
C  0.8187806235211597  -5.0075941936289725  1.1230702630373228 
H  1.5417056795569375  -5.500499197449467  0.6605207731831004 
H  0.7190861679221041  -5.390267506670497  2.0304007436278555 
C  1.2039091495446241  -3.5258094951493937  1.2355974410646076 
H  0.5615723265610154  -3.0630737233910614  1.8309418635416965 
H  2.1049077262284297  -3.4510758840718707  1.6401088280354752 
C  4.078057706479185  1.161305667587004  -0.7918576987394054 
H  3.8004227226280403  2.1176597010671  -0.8849982290595563 
C  5.095316628870098  1.1685868331457896  0.3493134669689917 
H  5.511626061885892  0.2740828476761943  0.4353900953943144 
H  4.64271423260586  1.384142999478993  1.2028079426696723 
C  6.167958279573844  2.216243058393516  0.04944207307619708 
H  5.757887891140454  3.117101608110871  0.060101807182852074 
H  6.858555691716587  2.1889100783199353  0.7585458613484619 
C  6.828726777245583  1.9829484974200566  -1.303021834133484 
H  7.360826512657544  1.148450321347723  -1.2660995413215186 
H  7.448304167804633  2.730442803150841  -1.4960055381297306 
C  5.803803808224714  1.8755175661947736  -2.4306997857622177 
H  6.269040619956781  1.641231175446154  -3.273009886686685 
H  5.3667168899899504  2.7539389318520557  -2.5588887098735746 
C  4.7396430529491935  0.8217510333394396  -2.1332405597068567 
H  5.154736077768053  -0.07647597139060269  -2.088001652553464 
H  4.059931673455692  0.8152484081461049  -2.8543545981589338 
C  3.7906701102770106  -1.8229139796753242  -0.7022719496347181 
H  3.7773923065315276  -2.606209611405702  -0.11540996991563013 
H  4.627355210174719  -1.3301163099603586  -0.5695641490627057 
H  3.7271536716983955  -2.1134626441405864  -1.6360853119335037 
C  2.0712685382204814  2.5541080453798326  1.2382995219147688 
C  2.155164682272319  2.098361698493449  2.559818176460751 
H  1.8893082790964404  1.2122498828749722  2.7742706726264865 
C  2.6270984032348252  2.941705428862666  3.5567599678735844 
H  2.699903781545175  2.628049094078116  4.450309519123298 
C  2.99239199505773  4.24554030718332  3.242604621193477 
H  3.297300203059208  4.828561823605691  3.9276207276332364 
C  2.914776289686737  4.699331812547716  1.9386753010465159 
H  3.1677935715942986  5.591622400641116  1.7313858863239018 
C  2.466231921046336  3.854019711843211  0.9289193098468929 
H  2.4297663684740853  4.161936510584695  0.03113480979778671 
C  1.000365846711098  2.3501780508773953  -1.4497716160316185 
C  1.3246278281174861  1.9137825726166389  -2.7330311743314963 
H  1.7894105643487772  1.093619873438839  -2.855203368298671 
C  0.963352856234992  2.6838013120932764  -3.8346902620469976 
H  1.192971168363073  2.3917141213153457  -4.708040984104773 
C  0.2733390184846325  3.871904169427075  -3.6685115807780004 
H  0.056341831646245844  4.405866432414759  -4.424522045394243 
C  -0.10070820483463772  4.2820788707077595  -2.39482283969701 
H  -0.5980882949144815  5.083620400377368  -2.281171477157523 
C  0.2504748892153996  3.5232301538134037  -1.2859919602021894 
H  -0.01743188903627102  3.79915219109788  -0.4169968293138674 
Br  -1.5839191898578664  1.5839191898578664  0.0 
C  -1.2937473829822488  -1.2398794889499034  -0.4598005675376139 
C  -1.601562203225019  -1.4938654694550033  -1.7919791134336869 
H  -1.1309417375171225  -1.0428217585005106  -2.480879663633267 
C  -2.60218398542082  -2.411889969420291  -2.121542410022959 
H  -2.8231586547736818  -2.5626138747145775  -3.03270050271447 
C  -3.2683208079706407  -3.09759503004543  -1.143064365570095 
H  -3.9596020908062854  -3.707191723557817  -1.3683280760515548 
C  -2.9347449854640226  -2.896087320001541  0.14198826503765638 
H  -3.3668350933519986  -3.405606940434718  0.8171022443470677 
C  -1.9675509241539992  -1.9516175659140573  0.5112421903797603 
H  -1.7755298364628027  -1.8022912010877177  1.4301324877763764 

-Ni 0
lanl2dz
F 1 1.0
3.130 1.0
****
-H 0
6-31g(d,p)
****
-P 0
6-31+g(d)
****
-N 0
6-31+g(d)
****
-C 0
6-31g(d)
****
-Br 0
6-31+g(d)
****

-Ni 0
lanl2dz


