%chk=KEKEQOBA_PN_Pd_gaussain.chk
%nprocshared=32
%mem=64GB
#p opt rwb97xd/gen pseudo=read

This Gaussian input file was generated using the DART python program. This file was generated on the 2023-08-11 at 15:55:49

0 0
Pd  0.0  0.0  0.0 
P  1.5837756304161263  1.4084582892297526  1.460431781443415e-15 
C  2.1781621166230356  0.970247861047651  1.6682945380379137 
H  2.9790251498481086  1.518362051509183  1.8622560193383069 
H  1.4793199485582542  1.2297752235511585  2.3205046439443784 
N  2.5192654244388497  -0.424268078841576  1.9058819467783152 
C  2.5039648901572455  -1.428112449535158  0.9964179545952684 
N  1.5837756304161266  -1.4084582892297526  -1.1102230246251565e-16 
C  1.6165982640649101  -2.367122905232267  -0.9610464550400888 
H  1.016927994734611  -2.2894721037592536  -1.6938964745611034 
C  2.4573767977821572  -3.4282782453860428  -0.9316746777118862 
H  2.4360194022287596  -4.091372212840873  -1.611001456206743 
C  3.3520626769131106  -3.5115695724328333  0.1293153187171594 
H  3.934846330974352  -4.257230330036342  0.1992198044759233 
C  3.394771105387519  -2.5265262661388794  1.0715417484370784 
H  4.024192354265956  -2.576995623693567  1.7808473774915319 
C  3.2469095176343963  -0.6054745561307078  3.16248023828843 
H  3.1357168176152976  -1.528257183020405  3.4746817388822278 
H  2.8933435921017336  0.012393080883883023  3.837261432033695 
H  4.198615045241647  -0.4199317842940542  3.0182994887378114 
C  1.248180912395404  3.1739466278016133  0.14217911802851513 
C  1.7898075221378322  4.079003699599684  -0.7818906641888533 
H  2.3653553316175806  3.772542593650959  -1.4712508019570367 
C  1.478997410246719  5.41924617922066  -0.6795473685332232 
H  1.8505610190858126  6.034669998746071  -1.30050889467412 
C  0.6377802363709394  5.875244837406862  0.30946303086046795 
H  0.4231287379359727  6.799313373871483  0.3609731671033416 
C  0.10423817243273303  4.988019234380035  1.232077189294131 
H  -0.4712310076796058  5.305359057943025  1.91818043890156 
C  0.4102884908750368  3.6412903574905995  1.151454644472682 
H  0.04812953858261637  3.0333788761585945  1.7860930565934705 
C  2.964453320901658  1.1790842300400586  -1.1407372992790532 
C  4.273024271803822  1.419582044274403  -0.7186288797900315 
H  4.442304580929591  1.7377237907687548  0.16039566257486976 
C  5.324932951821435  1.1907708061537186  -1.594072490888625 
H  6.2184918412761725  1.3336706928873676  -1.3044010503771846 
C  5.083835986184059  0.7579017608563845  -2.8815276329358546 
H  5.81027580534736  0.6156131417808433  -3.477175413100935 
C  3.7890429091203464  0.5299422412488954  -3.308277319530055 
H  3.627248005803438  0.23828686306609725  -4.197739342124455 
C  2.7191220475833107  0.7272253252598224  -2.4365802822452896 
H  1.8290938809946942  0.5546601404342806  -2.723415513109714 
Br  -1.654629867976521  1.654629867976521  0.0 
C  -1.352040782177733  -1.3199206589279684  -0.4819701001757076 
C  -1.6380700204479186  -1.599217458033982  -1.8139382277462257 
H  -1.1579680913617836  -1.159339363685303  -2.503515938957912 
C  -2.63068216563725  -2.52632649780156  -2.142289956238523 
H  -2.8368222554424674  -2.694399528648736  -3.0538898079700485 
C  -3.3101544432602585  -3.1961573187854975  -1.1619874135498987 
H  -3.9960123560788676  -3.811990145619169  -1.3868663427944008 
C  -2.9974710358883443  -2.9701089012107795  0.12423560353005347 
H  -3.438659168087169  -3.468581175155742  0.8017084178296768 
C  -2.0389854250767776  -2.015940632791841  0.4912562833419403 
H  -1.8619130127668426  -1.8492165108145995  1.4101568590026907 

-Pd 0
lanl2dz
F 1 1.0
1.472 1.0
****
-P 0
6-31+g(d)
****
-H 0
6-31g(d,p)
****
-N 0
6-31+g(d)
****
-Br 0
6-31+g(d)
****
-C 0
6-31g(d)
****

-Pd 0
lanl2dz
