%chk=URICAPIW_PN_Ni_gaussain.chk
%nprocshared=32
%mem=64GB
#p opt rwb97xd/gen pseudo=read

This Gaussian input file was generated using the DART python program. This file was generated on the 2023-08-11 at 15:55:49

0 0
Ni  0.0  0.0  0.0 
P  1.2082080884516542  1.6187443328086122  0.0 
N  1.2082080884516542  -1.6187443328086122  0.0 
C  2.1231512715455336  -1.7555464797021711  0.9923011560586776 
C  2.9956380202944555  -2.8410157934086397  1.0263104527165332 
H  3.624204895373521  -2.9265081050696704  1.7341419073724103 
C  2.943709092400031  -3.7910853805753923  0.024894527144869727 
H  3.532016698808775  -4.537089156789246  0.0380027732633873 
C  2.020561589761595  -3.642046387752228  -0.99913498756197 
H  1.9696173096734948  -4.27752694150662  -1.7047950162771561 
C  1.1802718346539023  -2.5517410293156955  -0.9693309135845389 
H  0.5469769888157447  -2.4528406861575975  -1.6700658209197252 
C  2.2133350397995395  -0.6759948917327739  2.033547580713434 
H  2.506728737832633  -1.0708802556808408  2.8929038207525197 
H  1.3182465550141251  -0.275130689864572  2.171441112342528 
C  3.2088379840273094  0.4264178604427036  1.6082863999377057 
H  3.184354473787339  1.15133410645914  2.2821623855521116 
H  4.122250832095553  0.04546609276605418  1.6115390431588208 
C  2.9376366991483476  1.034766532336667  0.22311140504179056 
H  3.137991934239995  0.35623575836677857  -0.46913287882569554 
H  3.5530508363745374  1.797409094215499  0.08432342820997718 
C  0.9987583230515605  2.7835966394902867  1.3805363049888573 
C  0.06578023903100205  2.538551278119499  2.3877434016715773 
H  -0.49626026587256855  1.7751554193949062  2.334656268297411 
C  -0.045608877339884835  3.4069837269676198  3.468946068400531 
H  -0.6945495238622932  3.2398039880088083  4.141837911249554 
C  0.776188970936811  4.503580712064138  3.568049089772436 
H  0.6925336649967886  5.090187327917087  4.310518623171372 
C  1.725667282689359  4.757634268678889  2.5924433364668493 
H  2.3022947731361203  5.507891684495021  2.6695868862554404 
C  1.8282355865673423  3.9008846066777734  1.4951373856488308 
H  2.469156841997985  4.081521581939124  0.8172965875954401 
C  1.304669939875549  2.657212586212994  -1.4995089522544278 
C  0.5983022611410185  3.852913674254327  -1.6117203620841316 
H  0.12150919730128673  4.1915530250707045  -0.8631846285663527 
C  0.5876429490790785  4.552744115071653  -2.8138761602949476 
H  0.09570305155174919  5.362543589535657  -2.8867417789270124 
C  1.2933045856451937  4.071974802570212  -3.9053960194068726 
H  1.287641137395857  4.553531002768605  -4.7235822521219015 
C  2.0087896784108437  2.888001313887983  -3.802470414585767 
H  2.494053729159214  2.561205689478193  -4.550415787536177 
C  2.016834925328491  2.17967342556075  -2.6074371193927317 
H  2.5061902718279816  1.368486922302579  -2.540938308996244 
Br  -1.5839191898578664  1.5839191898578664  0.0 
C  -1.2937473829822488  -1.2398794889499034  -0.4598005675376139 
C  -1.601562203225019  -1.4938654694550033  -1.7919791134336869 
H  -1.1309417375171225  -1.0428217585005106  -2.480879663633267 
C  -2.60218398542082  -2.411889969420291  -2.121542410022959 
H  -2.8231586547736818  -2.5626138747145775  -3.03270050271447 
C  -3.2683208079706407  -3.09759503004543  -1.143064365570095 
H  -3.9596020908062854  -3.707191723557817  -1.3683280760515548 
C  -2.9347449854640226  -2.896087320001541  0.14198826503765638 
H  -3.3668350933519986  -3.405606940434718  0.8171022443470677 
C  -1.9675509241539992  -1.9516175659140573  0.5112421903797603 
H  -1.7755298364628027  -1.8022912010877177  1.4301324877763764 

-Ni 0
lanl2dz
F 1 1.0
3.130 1.0
****
-P 0
6-31+g(d)
****
-H 0
6-31g(d,p)
****
-N 0
6-31+g(d)
****
-Br 0
6-31+g(d)
****
-C 0
6-31g(d)
****

-Ni 0
lanl2dz
