%chk=QILAVETA_PN_Ni_gaussain.chk
%nprocshared=32
%mem=64GB
#p opt rwb97xd/gen pseudo=read

This Gaussian input file was generated using the DART python program. This file was generated on the 2023-10-04 at 09:55:46

0 1
Ni  0.0  0.0  0.0 
P  2.767929529619936  -0.9302449660989522  -0.35292589431630855 
P  1.3239372473799504  1.5255458580455712  -1.1840300790669002e-15 
N  1.3239372473799504  -1.5255458580455716  -2.220446049250313e-16 
C  2.9153800504523746  0.7051175448623357  0.3976680116332729 
H  3.6772164090273627  1.204181896802162  0.00993286314126518 
H  3.041423407612699  0.6337913999115692  1.3769759423487649 
C  4.153847980077974  -1.9192383267658784  0.24492254905107735 
C  5.1354414759456954  -1.3246080308518886  1.0437736178063797 
H  5.085452249478258  -0.3979719729814015  1.2501098082612652 
C  6.18374284020307  -2.090782439071536  1.5360125088800485 
H  6.854816881440344  -1.688129790670028  2.0737218131632176 
C  6.250795863640696  -3.441111997593704  1.2428584957245035 
H  6.95085614503286  -3.972641830488297  1.6049318711060154 
C  5.302248298284472  -4.015950885834979  0.42426745080502704 
H  5.366217638361927  -4.9388483081410754  0.20685114177826458 
C  4.260254218603047  -3.265111781943694  -0.08064608434390907 
H  3.61705628544094  -3.668442971075092  -0.6511840678733828 
C  2.8848928326345202  -0.7514652863131133  -2.1388316622233745 
C  2.1144473157515553  -1.5724628711412616  -2.955729655378782 
H  1.5266355777828058  -2.2141362465021994  -2.572130671987197 
C  2.210752152135623  -1.4490044519749636  -4.340498357085334 
H  1.6890850923371836  -2.008708793536942  -4.902057809643938 
C  3.060684755349592  -0.5157539485623881  -4.896884291373886 
H  3.117328385377366  -0.4304547624948445  -5.842029686555718 
C  3.827881311374073  0.29589466787862073  -4.08114000677631 
H  4.4147669268643  0.9358290689661799  -4.469959935066229 
C  3.749897992875159  0.1841643556752437  -2.7027174447979965 
H  4.28180520757264  0.7398904228589118  -2.145723357571426 
C  1.788801375265832  2.704572667049086  -1.296115653117393 
C  1.3878972894225168  2.5191073278671627  -2.616682024761155 
H  0.7957353567162074  1.8089071432669854  -2.8378557195067575 
C  1.850555009929224  3.3651469720988496  -3.6049339582497018 
H  1.5837769671045927  3.2315259774070535  -4.506166872453487 
C  2.68668222723053  4.389891204961694  -3.291255119782173 
H  2.996544218986016  4.969391578770577  -3.977624439333023 
C  3.095025171389408  4.598421432566623  -1.9885281514074664 
H  3.6802210626865133  5.318376718871225  -1.7835090924615915 
C  2.652449561264765  3.7611508233196576  -0.9804249492430948 
H  2.9316340432208072  3.900718823768215  -0.08304604471850607 
C  0.9346688611129388  2.5185061823852593  1.4748552022962602 
C  -0.31132615087938564  3.1481945230757704  1.5594629069616353 
H  -0.9308215870626666  3.0677844492959148  0.8433874887389153 
C  -0.6461312509018222  3.880401463371257  2.6682950455570706 
H  -1.4971963597634497  4.298897499811564  2.7169043858333177 
C  0.24285132886077765  4.013664543551917  3.71117373665179 
H  0.005142232266094782  4.518697873711555  4.479267989217227 
C  1.4833056798894364  3.406952208345044  3.633031652459513 
H  2.1018083355349284  3.5040083926735113  4.348605682202823 
C  1.832109455464317  2.658854352760353  2.5212286732341704 
H  2.684756465873691  2.243476374013896  2.4761556168423207 
C  1.1341599481225866  -2.269443492466011  1.2874347463814553 
H  1.9839489660630032  -2.769250054149339  1.4560080713357928 
C  0.044998951606129545  -3.303624645840995  1.1516797992476824 
H  -0.8097634974024357  -2.856194706976705  0.9807539510771819 
H  -0.01769563014554687  -3.822271889925587  1.9806230576329997 
H  0.2541505733213969  -3.903352104163437  0.40505069797450194 
C  0.9163855456164809  -1.3595688153597556  2.4924019001138573 
C  -0.24750296349545953  -0.6255843670426662  2.6533791282732144 
H  -0.92534784854379  -0.6720107721398799  1.9885496082279714 
C  -0.4383632950628138  0.17371890107552712  3.765676296034427 
H  -1.2314477568602589  0.6903198513803965  3.847459879959115 
C  0.5169492098601639  0.22310645609568547  4.753503217790962 
H  0.3715418504859801  0.7514664170559153  5.529420359948506 
C  1.695451437335436  -0.4983542684019988  4.617044055976477 
H  2.3603624850134697  -0.4592207938590025  5.294262240792811 
C  1.8973743748465188  -1.2771971453524116  3.4855864826090404 
H  2.7105117203003912  -1.7594129903368794  3.385075208245678 
Br  -1.5839191898578664  1.5839191898578664  0.0 
C  -1.2937473829822488  -1.2398794889499034  -0.4598005675376139 
C  -1.601562203225019  -1.4938654694550033  -1.7919791134336869 
H  -1.1309417375171225  -1.0428217585005106  -2.480879663633267 
C  -2.60218398542082  -2.411889969420291  -2.121542410022959 
H  -2.8231586547736818  -2.5626138747145775  -3.03270050271447 
C  -3.2683208079706407  -3.09759503004543  -1.143064365570095 
H  -3.9596020908062854  -3.707191723557817  -1.3683280760515548 
C  -2.9347449854640226  -2.896087320001541  0.14198826503765638 
H  -3.3668350933519986  -3.405606940434718  0.8171022443470677 
C  -1.9675509241539992  -1.9516175659140573  0.5112421903797603 
H  -1.7755298364628027  -1.8022912010877177  1.4301324877763764 

-Ni 0
lanl2dz
F 1 1.0
3.130 1.0
****
-P 0
6-31+g(d)
****
-N 0
6-31+g(d)
****
-C 0
6-31g(d)
****
-H 0
6-31g(d,p)
****
-Br 0
6-31+g(d)
****

-Ni 0
lanl2dz


