%chk=INIZANIJ_PN_Ni_gaussain.chk
%nprocshared=32
%mem=64GB
#p opt rwb97xd/gen pseudo=read

This Gaussian input file was generated using the DART python program. This file was generated on the 2023-10-04 at 16:41:16

0 1
Ni  0.0  0.0  0.0 
P  1.3516555533862922  -1.5010420597038574  -5.660243930919692e-16 
P  2.234264594893687  1.635894829945309  1.337230765502971 
C  2.9985119566969365  -0.8948728060724757  0.49385203535751915 
H  3.5913047916619183  -1.6632706084815267  0.6884762940385016 
H  3.3987363497875314  -0.3780713846965505  -0.24867264843359982 
C  2.8837971732886447  -0.0062006290495531064  1.7354806031075403 
H  3.7775706840450636  0.08800870977996515  2.151857658127965 
H  2.2867099428962354  -0.44130694454404  2.3948297318088327 
C  1.3079742320963017  2.5365252328446903  -1.019166071017175 
H  1.9076097330546924  3.2783458419352067  -0.7590746641638044 
H  0.3868966520086152  2.894791063254597  -1.0832549641307423 
C  1.723025577051807  2.007613777720886  -2.3406413843278253 
C  3.5944629859014783  2.7546866580246108  1.0272216809218573 
C  4.51356952325556  2.449190834616126  0.029894109422399097 
H  4.424941462536269  1.64264146634669  -0.4619978232186231 
C  5.551014459690467  3.3132310969228858  -0.24896730594104624 
H  6.170799613777287  3.096645766819518  -0.9350061951868672 
C  5.699566416909134  4.49288905091076  0.45937616837042966 
H  6.41947113102891  5.083871398317479  0.2660092693369609 
C  4.797266690148451  4.800685516048554  1.4441300305798297 
H  4.890045614385853  5.612044043364088  1.9288726750518563 
C  3.748550663882219  3.94005126089992  1.739494525936182 
H  3.134728965771  4.16010180702863  2.430407783933408 
C  1.3647025841559859  2.2130430946454434  2.7979124899164276 
C  1.83705347150501  1.9062648454797602  4.065223089201199 
H  2.6110235737224645  1.3642612155744738  4.165626455892854 
C  1.171855764172919  2.3946472430686923  5.195389273390711 
H  1.4826466962638438  2.180650990982742  6.06658212266304 
C  0.056044389634340996  3.1950637085720217  5.026342983276022 
H  -0.39108345093672003  3.538291162905742  5.79065526812945 
C  -0.4176053931243586  3.5055031742668965  3.7651191207394152 
H  -1.1891476675482684  4.051397328066733  3.664855310598617 
C  0.24276449627796826  3.0102361861142346  2.642374835687361 
H  -0.07566559152338637  3.21950711091562  1.7711142953117458 
C  1.0790202757616196  -2.8309453206383606  1.185554655825844 
C  0.2567249856188196  -2.6227220580192814  2.313010015790606 
H  -0.2088978914407824  -1.7998811675756936  2.4169106672454563 
C  0.13290030787522555  -3.6136632281111183  3.264203590515915 
H  -0.438597475294918  -3.468832423008368  4.010499578529387 
C  0.814010895706262  -4.80705596712165  3.1614047694068588 
H  0.728342891265314  -5.470967433530935  3.834612766823258 
C  1.625926142188762  -5.019697380422867  2.064115526828333 
H  2.0901796304639317  -5.842552634221473  1.9752662729182677 
C  1.767115730862036  -4.043806231650526  1.0955344069431274 
H  2.3408318341422034  -4.200591088862607  0.3541240810196043 
C  1.6173737381089632  -2.2491615495878037  -1.6349733591601852 
C  0.573281859087088  -2.3097830021392083  -2.547402812680392 
H  -0.27961757856878444  -1.9655077956856635  -2.313862770144457 
C  0.777299412158837  -2.8751254550798135  -3.8059690560469233 
H  0.07160302143313224  -2.9031712148424065  -4.440321150294365 
C  2.0286821541960114  -3.394998066213679  -4.116488236009161 
H  2.1754635665485895  -3.786759853432364  -4.970417325022449 
C  3.04038180611842  -3.351809416314828  -3.2194970795198556 
H  3.8870491309308117  -3.715020074853979  -3.4504623553052265 
C  2.858217600652603  -2.787269239361237  -1.9668416357316312 
H  3.5729503093765245  -2.7656636056014485  -1.3413258152522216 
N  1.351655553386291  1.5010420597038574  -2.3933578661144574e-16 
N  2.019780722913624  1.5889027889535248  -3.351738917353206 
Br  -1.5839191898578664  1.5839191898578664  0.0 
C  -1.2937473829822488  -1.2398794889499034  -0.4598005675376139 
C  -1.601562203225019  -1.4938654694550033  -1.7919791134336869 
H  -1.1309417375171225  -1.0428217585005106  -2.480879663633267 
C  -2.60218398542082  -2.411889969420291  -2.121542410022959 
H  -2.8231586547736818  -2.5626138747145775  -3.03270050271447 
C  -3.2683208079706407  -3.09759503004543  -1.143064365570095 
H  -3.9596020908062854  -3.707191723557817  -1.3683280760515548 
C  -2.9347449854640226  -2.896087320001541  0.14198826503765638 
H  -3.3668350933519986  -3.405606940434718  0.8171022443470677 
C  -1.9675509241539992  -1.9516175659140573  0.5112421903797603 
H  -1.7755298364628027  -1.8022912010877177  1.4301324877763764 

-Ni 0
lanl2dz
F 1 1.0
3.130 1.0
****
-H 0
6-31g(d,p)
****
-P 0
6-31+g(d)
****
-N 0
6-31+g(d)
****
-C 0
6-31g(d)
****
-Br 0
6-31+g(d)
****

-Ni 0
lanl2dz


