%chk=EWIHUKIW_PN_Ni_gaussain.chk
%nprocshared=32
%mem=64GB
#p opt rwb97xd/gen pseudo=read

This Gaussian input file was generated using the DART python program. This file was generated on the 2023-10-04 at 16:41:16

0 1
Ni  0.0  0.0  0.0 
P  1.1974813808573395  1.6266955285178608  0.0 
N  1.1974813808573395  -1.62669552851786  0.0 
C  2.932398615320525  1.090584953606161  -0.05857858849897156 
C  3.9532667900251495  1.967737933365112  0.31481351100945065 
H  3.7386203323708935  2.825991143953359  0.6011300573902909 
C  5.286582413352213  1.5750422052456456  0.26413793791263485 
H  5.9599626694659715  2.170750592593906  0.5028884099940443 
C  5.6050173961497425  0.29493540068751267  -0.14303533067791052 
H  6.495329872465317  0.028092984642084984  -0.17788543133569343 
C  4.600706339805767  -0.5997784959727255  -0.5014152341718034 
H  4.8257466574193355  -1.4654570082159215  -0.7562185679192256 
C  3.2606387934023866  -0.2107055785739418  -0.48282340738451723 
C  2.250864782187192  -1.2263357693726507  -0.9790898799701601 
H  1.814389027489387  -0.8625229109582538  -1.7656911128787758 
H  2.7296710092323657  -2.023559326126136  -1.2543979029191739 
C  1.820277993907822  -2.0226770466984005  1.2890462001155487 
H  2.470783882598264  -2.7106449056988273  1.1313124885589099 
H  1.1418903360990311  -2.353000709350615  1.8824869162993558 
H  2.2492749627821245  -1.2611331417190126  1.6841626531840312 
C  0.5012235440847378  -2.809930126668947  -0.5605949343964813 
H  1.1246473627728257  -3.534226793958313  -0.6528223166963716 
H  0.13753195007245234  -2.588969191633062  -1.4215661474070487 
H  -0.209747789094193  -3.0721329283134695  0.029349727591022466 
C  0.9596973413157324  2.671356321031585  -1.5146245175369095 
H  -0.003099897694793574  2.8357442905759824  -1.602145269492109 
C  1.4001038702820112  1.92451146979693  -2.7694871225372535 
H  1.1915322896916962  2.4497988422768606  -3.5446533770163797 
H  0.9395552680920354  1.0832936905565806  -2.8205627812290177 
H  2.345878664249047  1.7690358011384957  -2.734125907175655 
C  1.6444908918253265  4.043788860410443  -1.442839156671533 
H  2.594041420804796  3.9232584467204012  -1.356522343184613 
H  1.3134469185485411  4.527446214357219  -0.683395912096709 
H  1.4569921681094233  4.538382944487786  -2.2441933234421536 
C  1.0663598329968533  2.754682550570989  1.444868647236291 
H  1.6754892796705145  3.5095523147479537  1.3106522312267026 
C  1.4556344347555183  2.033596883686081  2.7285948156378073 
H  1.495751889199005  2.6654457834838747  3.4502131965520624 
H  2.314186072490501  1.6209410496766194  2.6150500755545836 
H  0.800681770167678  1.3602835710233574  2.928083261770537 
C  -0.3704985972851762  3.2881785704381588  1.5155188285058023 
H  -0.9847077945759588  2.5503111306145407  1.5529947302504143 
H  -0.553825881486927  3.8174226759926957  0.7363978599758787 
H  -0.47262493918045756  3.829345500307379  2.30249998730634 
Br  -1.5839191898578664  1.5839191898578664  0.0 
C  -1.2937473829822488  -1.2398794889499034  -0.4598005675376139 
C  -1.601562203225019  -1.4938654694550033  -1.7919791134336869 
H  -1.1309417375171225  -1.0428217585005106  -2.480879663633267 
C  -2.60218398542082  -2.411889969420291  -2.121542410022959 
H  -2.8231586547736818  -2.5626138747145775  -3.03270050271447 
C  -3.2683208079706407  -3.09759503004543  -1.143064365570095 
H  -3.9596020908062854  -3.707191723557817  -1.3683280760515548 
C  -2.9347449854640226  -2.896087320001541  0.14198826503765638 
H  -3.3668350933519986  -3.405606940434718  0.8171022443470677 
C  -1.9675509241539992  -1.9516175659140573  0.5112421903797603 
H  -1.7755298364628027  -1.8022912010877177  1.4301324877763764 

-Ni 0
lanl2dz
F 1 1.0
3.130 1.0
****
-H 0
6-31g(d,p)
****
-P 0
6-31+g(d)
****
-N 0
6-31+g(d)
****
-C 0
6-31g(d)
****
-Br 0
6-31+g(d)
****

-Ni 0
lanl2dz


