%chk=MOSIPAXA_PN_Ni_gaussain.chk
%nprocshared=32
%mem=64GB
#p opt rwb97xd/gen pseudo=read

This Gaussian input file was generated using the DART python program. This file was generated on the 2023-10-04 at 16:41:16

0 1
Ni  0.0  0.0  0.0 
P  1.4354726947942973  -1.4210975133677493  -7.964013301953116e-16 
C  2.9434083825060364  -0.4144431447946593  -0.49620515309505114 
C  2.6533978526508157  1.0272913637293901  -0.06198327489909729 
C  2.9565276595243333  -0.3972385337317224  -2.048788721193321 
N  1.4354726947942966  1.4210975133677493  -3.9607885702723904e-16 
C  4.25849406087465  -0.9651056099941848  0.017787656164219963 
C  1.5977101955805026  -2.970444851807733  -0.9182305474158459 
C  0.849696496477433  -3.196009021039411  -2.102089188264919 
C  1.0178076313099116  -4.312495757575844  -2.8294364735994875 
C  1.8993229775815612  -5.324289263281539  -2.436045159385023 
C  2.66856743874924  -5.107835095213201  -1.2642779461175078 
C  2.4690109802471962  -3.9660835090360735  -0.5262297733454704 
C  1.5816662886297665  -1.966034333477152  1.737500913729428 
C  0.8209198964170165  -3.0452114522700793  2.1206383995084965 
C  0.8578053750623069  -3.480659483935069  3.460983762907136 
C  1.6209680095204198  -2.7823054789040444  4.3932052425052515 
C  2.359777706148166  -1.7109140081021397  4.000350500314492 
C  2.3205401326758746  -1.2788105358043216  2.6876381167147123 
C  3.843785920413732  1.8849655335416848  0.23804690119067373 
C  4.241138282752709  2.151437697793516  1.58192558091687 
C  5.324768981159123  2.872939431738685  1.8654978774928053 
C  6.156945795002643  3.374752757912214  0.8857325044692781 
C  5.810361639238479  3.1223736905883603  -0.41889029900689584 
C  4.721566988875091  2.385213411194562  -0.7435789372807459 
C  1.1188751252733855  2.834016796606549  0.25863497061575313 
C  0.8200758162720112  3.2081067270998878  1.5684210282770064 
C  0.43482154016421126  4.531235184023324  1.7626500663224876 
C  0.28504646133415923  5.427009128475072  0.7383640046176387 
C  0.600754820221867  4.996262062040939  -0.5142758985017081 
C  1.0099870849138646  3.697025610895163  -0.7973286277752367 
C  0.8690969234984097  2.2836478967648377  2.7218494708177157 
C  -0.18740921177845538  6.862845051630314  0.9678570954083043 
C  1.3035736727991583  3.2520007417000367  -2.21949369597646 
H  2.424212592688278  -0.1704410747479233  -2.2244660453357143 
H  3.4034352751730808  -0.056242050069169436  -2.258598447385694 
H  3.0230660202737334  -0.9556671760557467  -2.2659851023347484 
H  4.2583194386230705  -0.9750850624009314  0.6134390307422802 
H  4.327628680314881  -1.5315633002144096  -0.19528636755810538 
H  4.708674753649155  -0.6072681708202232  -0.17758880346817688 
H  0.45623250224256207  -2.7671676929339464  -2.2787983010731714 
H  0.705479197216053  -4.3909332356176165  -3.343407641365665 
H  1.9322584740373847  -5.838608360405214  -2.7369704813622677 
H  3.0915281533515895  -5.501033475158154  -1.0992762554845312 
H  2.7691402767959854  -3.8968213232436697  -0.008667637005883322 
H  0.4894223958550019  -3.3251647322228295  1.7069709628340075 
H  0.5289448990820987  -3.957439475192899  3.63745984421636 
H  1.6585620410961701  -2.9736388620408825  4.9533340806196 
H  2.692464531095885  -1.4055422085473128  4.405959130083197 
H  2.6175175401436572  -0.772026199595557  2.5277794728221883 
H  3.900928006214085  1.933132537815575  2.029012311724817 
H  5.482106959652454  2.9605817601703515  2.4396776775473863 
H  6.636682885376084  3.717106924620336  1.028242323982281 
H  6.1448097360461515  3.3533828098865976  -0.8559243335428661 
H  4.605202531182327  2.248396438276755  -1.3196468403160408 
H  0.32611182233689995  4.721774937596117  2.3256995841789023 
H  0.5601234930305518  5.3808421699216655  -0.9693403839025405 
H  1.0445558682126652  1.744754514856693  2.528523782779721 
H  1.2560460697252938  2.485640682129537  3.1266396175541513 
H  0.3235655256607364  2.248056806410919  2.9712887986325405 
H  -0.2142210329931058  7.165255365459911  0.44706220456100687 
H  -0.7357422627901169  6.855236995252552  1.2174397723840829 
H  0.1933786916279312  7.144750885840532  1.3442464725931698 
H  1.2472014582910655  3.713195321125354  -2.592840697223513 
H  1.8603208019107162  3.0386787935941775  -2.259342669393194 
H  0.9090771135120315  2.826383245848801  -2.3687355196585016 
Br  -1.5839191898578664  1.5839191898578664  0.0 
C  -1.2937473829822488  -1.2398794889499034  -0.4598005675376139 
C  -1.601562203225019  -1.4938654694550033  -1.7919791134336869 
H  -1.1309417375171225  -1.0428217585005106  -2.480879663633267 
C  -2.60218398542082  -2.411889969420291  -2.121542410022959 
H  -2.8231586547736818  -2.5626138747145775  -3.03270050271447 
C  -3.2683208079706407  -3.09759503004543  -1.143064365570095 
H  -3.9596020908062854  -3.707191723557817  -1.3683280760515548 
C  -2.9347449854640226  -2.896087320001541  0.14198826503765638 
H  -3.3668350933519986  -3.405606940434718  0.8171022443470677 
C  -1.9675509241539992  -1.9516175659140573  0.5112421903797603 
H  -1.7755298364628027  -1.8022912010877177  1.4301324877763764 

-Ni 0
lanl2dz
F 1 1.0
3.130 1.0
****
-H 0
6-31g(d,p)
****
-P 0
6-31+g(d)
****
-N 0
6-31+g(d)
****
-C 0
6-31g(d)
****
-Br 0
6-31+g(d)
****

-Ni 0
lanl2dz


