%chk=SUNAQEKE_PN_Pd_gaussain.chk
%nprocshared=32
%mem=64GB
#p opt rwb97xd/gen pseudo=read

This Gaussian input file was generated using the DART python program. This file was generated on the 2023-10-04 at 16:41:16

0 1
Pd  0.0  0.0  0.0 
P  1.5325207845246342  -1.464062855549583  -9.770543735108452e-16 
N  1.5325207845246338  1.4640628555495834  -2.9031829144244875e-16 
C  2.7259713158399843  1.0120762707580477  0.2029923803289839 
C  4.019403338308775  1.697629289329256  0.4516428618894873 
C  4.414884782583166  3.0175479066720845  0.4457699727833936 
C  5.7511940606373075  3.2999088882604193  0.7117531479333051 
C  6.6419840409834165  2.3001482840952736  0.9787535323419944 
C  6.2588634523650715  0.9664804585653114  0.9942440366242925 
C  4.938720639198888  0.6718012421883282  0.7117424927680642 
C  4.261285238672672  -0.6313964093112613  0.6019289269400991 
C  2.977769081955407  -0.42260947175504987  0.2721666183726823 
C  1.317006533251988  2.8962966268331725  0.042779923950146355 
C  0.9804248527442169  3.4574840662150566  1.258081252932635 
C  0.7726217940678423  4.8436006610782005  1.2825539775407548 
C  0.8956157928971212  5.581693230604087  0.12438093128959972 
C  1.2199120531885435  4.978415781379786  -1.0567503885975944 
C  1.433038767817104  3.614168964770103  -1.138510995750337 
C  0.8354181273491422  2.6282664199929786  2.494721618917906 
C  1.777345523042635  2.9442994326782927  -2.4278651163398766 
C  1.9044632708640974  -2.551527030304803  -1.391057811695694 
C  3.1852401433126607  -2.715179218523225  -1.8584840885482732 
C  3.452692395597577  -3.5745195776007193  -2.903818924860712 
C  2.4462838262650575  -4.25287288820854  -3.508592533380079 
C  1.1607844209687461  -4.114402091526863  -3.0533615508566796 
C  0.8926769646463825  -3.2615672386603216  -2.0083570123017043 
C  1.3541162486157095  -2.5002103127778104  1.4629984000150669 
C  1.7530379737645536  -3.812421781512075  1.4935306538876425 
C  1.6103752565645881  -4.563788801602931  2.6522609073293184 
C  1.098989455583487  -3.997491311807814  3.768012365140005 
C  0.7072111001142773  -2.690577955767685  3.75742133167893 
C  0.8195682111104694  -1.944647061571174  2.6112285727191633 
H  3.8078099362232507  3.6991481509631017  0.2678192270711185 
H  6.042442616559995  4.182073759190892  0.705830380912042 
H  7.5287472307603265  2.519033227310163  1.156538027983449 
H  6.871113428406271  0.2925833398315411  1.1864137798198873 
H  4.6588786124771895  -1.4604432773464242  0.7383959914935243 
H  0.5504469849722269  5.2666911640931655  2.082292791443082 
H  0.7545775087873957  6.500065505334927  0.1469130732447366 
H  1.300170649617704  5.49847142114546  -1.8244242381242992 
H  0.1964402436869206  1.927937625287569  2.3368162564471278 
H  0.5322511247140251  3.1816124337444793  3.2185240350361375 
H  1.6837678245864427  2.2398721493203957  2.721030128934938 
H  1.5752776665589732  3.5338230359364373  -3.158641458716708 
H  1.2631458178781956  2.1383556027891952  -2.517456054902339 
H  2.7126468087675155  2.729727845939911  -2.437057998695401 
H  3.88042386333389  -2.2408651633802  -1.464355502283271 
H  4.328009880271355  -3.688252723939913  -3.1957066471926834 
H  2.628692747905344  -4.8105252095588575  -4.229470639441462 
H  0.4717926940313908  -4.594976192108005  -3.4509181179795556 
H  0.016289294107797003  -3.160954574086773  -1.713088807688719 
H  2.120988623017406  -4.202130766913403  0.7334633500178565 
H  1.8679878615196364  -5.456107222255436  2.661598569376071 
H  1.014705167187394  -4.500310413603589  4.545117840348378 
H  0.3608459016651464  -2.304231558237047  4.528546723828876 
H  0.5348285264846179  -1.0596145200457607  2.6061964319973003 
Br  -1.654629867976521  1.654629867976521  0.0 
C  -1.352040782177733  -1.3199206589279684  -0.4819701001757076 
C  -1.6380700204479186  -1.599217458033982  -1.8139382277462257 
H  -1.1579680913617836  -1.159339363685303  -2.503515938957912 
C  -2.63068216563725  -2.52632649780156  -2.142289956238523 
H  -2.8368222554424674  -2.694399528648736  -3.0538898079700485 
C  -3.3101544432602585  -3.1961573187854975  -1.1619874135498987 
H  -3.9960123560788676  -3.811990145619169  -1.3868663427944008 
C  -2.9974710358883443  -2.9701089012107795  0.12423560353005347 
H  -3.438659168087169  -3.468581175155742  0.8017084178296768 
C  -2.0389854250767776  -2.015940632791841  0.4912562833419403 
H  -1.8619130127668426  -1.8492165108145995  1.4101568590026907 

-Pd 0
lanl2dz
F 1 1.0
1.472 1.0
****
-H 0
6-31g(d,p)
****
-P 0
6-31+g(d)
****
-N 0
6-31+g(d)
****
-C 0
6-31g(d)
****
-Br 0
6-31+g(d)
****

-Pd 0
lanl2dz


