%chk=XIGAYIVA_PN_Ni_gaussain.chk
%nprocshared=32
%mem=64GB
#p opt rwb97xd/gen pseudo=read

This Gaussian input file was generated using the DART python program. This file was generated on the 2023-08-11 at 15:55:49

0 0
Ni  0.0  0.0  0.0 
P  1.3113529073060377  1.5363767612470576  2.6417132793760433e-15 
C  0.8890373285492816  3.1527099209495897  -0.69304063285307 
C  0.6271138766372344  4.241279891015065  0.1282218681842917 
C  0.19635020211765064  5.442189109078473  -0.42402590834787857 
C  0.025706570852461752  5.550307247278619  -1.8007965462178133 
C  0.2859094210393738  4.4605801749678875  -2.621529288727648 
C  0.7179314680014832  3.2624879189343425  -2.0679135853998467 
C  1.9668373204242195  1.8607060908546873  1.651223646304598 
C  3.131128632575435  2.6082769757903175  1.7859597307281216 
C  3.6909560156842205  2.801048766844747  3.0428090286534113 
C  3.0873667881678473  2.246179699892677  4.16472223963096 
C  1.9235936661688373  1.498426385746276  4.027816316838063 
C  1.3633217412340608  1.3072254723963752  2.7729731908401787 
N  1.3113529073060386  -1.5363767612470576  0.0 
C  2.419573487455977  -1.5027184481923697  -0.8367541536762653 
C  3.3559629853212645  -2.5285531325966857  -0.788944127941992 
C  3.1817233075650018  -3.5867872493899653  0.09409562130497917 
C  2.073020225655812  -3.619253195411899  0.928772408159638 
C  1.1389368736089593  -2.5947687917800653  0.8825207255517591 
C  2.5292948400896655  -0.3279717288167001  -1.7389787709930027 
C  2.7416040832048014  1.0011521173045503  -1.0270660467355033 
H  4.1006722182770705  -2.5174171043570293  -1.338791786139655 
H  3.8075808261842923  -4.283849006644562  0.13441550425162507 
H  1.9528351928720673  -4.338955639428619  1.5225337069751959 
H  0.39334120047684595  -2.628388240669722  1.443107565268002 
H  3.523541613593806  2.9892975625146607  1.0419343851783023 
H  4.454572992333635  3.31192092060143  3.1397060125531246 
H  3.445497364134722  2.3854142713830493  5.011785002748027 
H  1.5062340011678326  1.1318634278798254  4.782328793839232 
H  0.5756183629270486  0.8089662404755282  2.6824212410578885 
H  0.7281454999450807  4.162906243979252  1.051093019831209 
H  0.013699985840144091  6.168346131978533  0.1273378341912086 
H  -0.26490837590828864  6.348831252552035  -2.1699244586294384 
H  0.17394466144568987  4.530894171329246  -3.5389968710022717 
H  0.8928000013298012  2.529554455995219  -2.6126898192387307 
H  3.2605846953322684  -0.49465062325151354  -2.3397542563194937 
H  1.6942752229918818  -0.2840504969274411  -2.237403664483715 
H  3.525308824180087  0.9079160611410027  -0.47481428639069456 
H  2.9045202932365823  1.658680410807262  -1.723588337658276 
Br  -1.5839191898578664  1.5839191898578664  0.0 
C  -1.2937473829822488  -1.2398794889499034  -0.4598005675376139 
C  -1.601562203225019  -1.4938654694550033  -1.7919791134336869 
H  -1.1309417375171225  -1.0428217585005106  -2.480879663633267 
C  -2.60218398542082  -2.411889969420291  -2.121542410022959 
H  -2.8231586547736818  -2.5626138747145775  -3.03270050271447 
C  -3.2683208079706407  -3.09759503004543  -1.143064365570095 
H  -3.9596020908062854  -3.707191723557817  -1.3683280760515548 
C  -2.9347449854640226  -2.896087320001541  0.14198826503765638 
H  -3.3668350933519986  -3.405606940434718  0.8171022443470677 
C  -1.9675509241539992  -1.9516175659140573  0.5112421903797603 
H  -1.7755298364628027  -1.8022912010877177  1.4301324877763764 

-Ni 0
lanl2dz
F 1 1.0
3.130 1.0
****
-P 0
6-31+g(d)
****
-H 0
6-31g(d,p)
****
-N 0
6-31+g(d)
****
-Br 0
6-31+g(d)
****
-C 0
6-31g(d)
****

-Ni 0
lanl2dz
