%chk=CIRIKEXE_PN_Pd_gaussain.chk
%nprocshared=32
%mem=64GB
#p opt rwb97xd/gen pseudo=read

This Gaussian input file was generated using the DART python program. This file was generated on the 2023-08-11 at 15:55:49

0 0
Pd  0.0  0.0  0.0 
P  1.3138773173321778  -1.6630773869546776  -4.748899159560511e-15 
N  1.3138773173321785  1.663077386954678  6.845101798332862e-16 
C  0.7254359182839172  2.7380046417070867  -0.8402838489918788 
H  1.4253728102194796  3.3768519336815714  -1.0920013589995565 
H  0.026131984420805665  3.202846573335772  -0.3354356275596284 
H  0.3351689387535418  2.3452232834107383  -1.6496527075867273 
C  1.8685407908167617  2.3448087867640948  1.193209667114692 
H  2.5157745888886227  3.0256788796907195  0.9091920317615723 
H  2.315476233952541  1.6892773012471733  1.767723854202375 
H  1.1413594165660805  2.7738902658326605  1.6918936083673035 
C  2.4574111455597962  1.082211963867588  -0.7741091550685789 
H  2.984355872926862  1.824524880081657  -1.1591364381561784 
H  2.090300111037605  0.5536888765508143  -1.5264920924782506 
C  3.3787992548378747  0.2019732530998286  0.026687113745727607 
C  4.665295610550805  0.6396413710776934  0.30316133540681806 
H  4.939802827648844  1.4968369088093665  0.001098663343553502 
C  5.552708024586124  -0.14688989334845604  1.0065763604782856 
H  6.433995485041258  0.16580376064455074  1.1710651163161379 
C  5.163389574616032  -1.3854732185489065  1.4710818728764592 
H  5.767554313966496  -1.919969834264254  1.9735435186907824 
C  3.874289419358416  -1.8472882735935634  1.2008650994351613 
H  3.606681981669112  -2.705073438126545  1.5109866414158635 
C  2.984465758759482  -1.071413870440991  0.48561634300775114 
C  1.6477813542697948  -2.185570790939419  -1.7430533631846374 
C  2.941348356559107  -2.245379324673462  -2.2629416010597154 
H  3.671992607515183  -1.943160357629268  -1.737523981918917 
C  3.1742555855172134  -2.7396407531841236  -3.531518757950736 
H  4.0593993467822  -2.745757988064354  -3.8742136533477844 
C  2.148217749287695  -3.218822745105295  -4.300105901509588 
H  2.312479646430031  -3.5824454662988945  -5.162115417570171 
C  0.8481786741276841  -3.1597329121421103  -3.783032933063585 
H  0.12459400380590613  -3.4882864234134976  -4.302644167648266 
C  0.6004716792862159  -2.6380401083040868  -2.542932548767929 
H  -0.29382648199213435  -2.5838938155901365  -2.2245161740013 
C  1.1447015452879694  -3.3065510559731135  0.8243735727183056 
C  1.3197220887194596  -4.515602845007388  0.16606384256844928 
H  1.6481894209629449  -4.517276774929012  -0.7240397579228048 
C  1.0222698746691847  -5.7218929074761835  0.7872953256290123 
H  1.1382002343276436  -6.537775367693278  0.3124830860863004 
C  0.5561859692243517  -5.743917943885988  2.0964589788276724 
H  0.33992636272999865  -6.567437213490081  2.5173039089262326 
C  0.4137604450269131  -4.543939677297734  2.7798369341151976 
H  0.1145399882217184  -4.547432199681574  3.6825237793260284 
C  0.703104717779466  -3.342956854329177  2.155568265383708 
H  0.6005538247604204  -2.5295574926331694  2.6372152758940186 
Br  -1.654629867976521  1.654629867976521  0.0 
C  -1.352040782177733  -1.3199206589279684  -0.4819701001757076 
C  -1.6380700204479186  -1.599217458033982  -1.8139382277462257 
H  -1.1579680913617836  -1.159339363685303  -2.503515938957912 
C  -2.63068216563725  -2.52632649780156  -2.142289956238523 
H  -2.8368222554424674  -2.694399528648736  -3.0538898079700485 
C  -3.3101544432602585  -3.1961573187854975  -1.1619874135498987 
H  -3.9960123560788676  -3.811990145619169  -1.3868663427944008 
C  -2.9974710358883443  -2.9701089012107795  0.12423560353005347 
H  -3.438659168087169  -3.468581175155742  0.8017084178296768 
C  -2.0389854250767776  -2.015940632791841  0.4912562833419403 
H  -1.8619130127668426  -1.8492165108145995  1.4101568590026907 

-Pd 0
lanl2dz
F 1 1.0
1.472 1.0
****
-P 0
6-31+g(d)
****
-H 0
6-31g(d,p)
****
-N 0
6-31+g(d)
****
-Br 0
6-31+g(d)
****
-C 0
6-31g(d)
****

-Pd 0
lanl2dz
