%chk=UVEMUSUF_PN_Pd_gaussain.chk
%nprocshared=32
%mem=64GB
#p opt rwb97xd/gen pseudo=read

This Gaussian input file was generated using the DART python program. This file was generated on the 2023-10-04 at 16:41:16

0 1
Pd  0.0  0.0  0.0 
C  4.12302702412775  -0.9539552521268836  -0.815389448098331 
C  3.861992054279961  -1.64783901282209  -1.9853197242943303 
H  3.0370040575347463  -2.0608156774732245  -2.1035101624860384 
C  4.822625467011643  -1.7295463653611245  -2.9831219716783455 
H  4.6399177444091695  -2.195976207417092  -3.767082187850763 
C  6.026753111892626  -1.1302928483549626  -2.8171843713909355 
H  6.677175008952616  -1.1982417065752675  -3.4778307506979567 
C  6.28425038784854  -0.4188945503844419  -1.6658125354838937 
H  7.102394934387143  0.010203755821134338  -1.5663282423482958 
C  5.344341503490791  -0.3335601654587013  -0.6605786960938909 
H  5.533771740667546  0.13767089157494053  0.117216608681171 
C  2.5673220500602083  0.6327086287124575  1.1622326525319762 
H  3.4006353831400125  1.115436766990239  1.27014541093555 
H  2.144432782753961  0.5569438508043099  2.0311369084921655 
C  3.6096255434256417  -1.9992725518668613  1.7963622787082767 
C  3.726061025640923  -3.3703839900680275  1.6090827749839491 
H  3.4301823911982225  -3.757936630223362  0.8179307764470483 
C  4.283237930115316  -4.158446985388203  2.6005098386287617 
H  4.370220064387509  -5.074231357358904  2.468830901924078 
C  4.707529087201811  -3.594503727837467  3.778011968682613 
H  5.068632241110309  -4.1349020480081675  4.443457494472698 
C  4.604405111160927  -2.2349233278911034  3.9828057226088416 
H  4.889786350286134  -1.8600748657558739  4.784975822269916 
C  4.069213973415763  -1.4213830262013913  2.979281431121239 
H  4.020653107618346  -0.5005655865197488  3.1003182647346197 
C  2.6150703219326523  2.4283840954407028  -1.1002049887575236 
C  3.848810652090842  2.885048833255502  -0.6392262745225908 
H  4.076993953306799  2.7764787152765695  0.25504725775275966 
C  4.736645682039432  3.499296436567611  -1.508251136895098 
H  5.571482678389098  3.7650807746541983  -1.1998490371068935 
C  4.394203048275994  3.719094105163384  -2.8212983513779135 
H  4.998854838368493  4.118980857099203  -3.4053825391147092 
C  3.144862793065373  3.33974403186356  -3.2653630185129514 
H  2.884855409027197  3.5294785551999057  -4.138113143634676 
C  2.2776177941035898  2.6786256970868743  -2.4178647712003687 
H  1.451942156810838  2.3973419975898067  -2.7384954970805744 
C  0.7694278332783248  2.8550957908331425  1.0554425457641459 
C  0.6863143006589676  2.7514230168050644  2.4212647364686575 
H  1.011437339222638  1.9910433538509738  2.8479404774722386 
C  0.12160568490293988  3.7708605316107358  3.1705223441696013 
H  0.08153188946587098  3.6948010707231065  4.0972161983246895 
C  -0.374512669663873  4.878475754172207  2.564068523164229 
H  -0.7552215997974396  5.556102866495532  3.074390879289196 
C  -0.3138514516116151  4.999456475194031  1.1993547283466268 
H  -0.6589129416169752  5.755972097558777  0.78123570075596 
C  0.26834617748062173  3.9849599335579025  0.43502193584867027 
H  0.31925732382182415  4.0692642022580685  -0.48936866636295134 
N  1.4622056387526345  -1.5342928892489849  1.8789668757733138e-16 
P  2.88394309422923  -0.9982861425824153  0.48888689410016967 
P  1.4622056387526345  1.5342928892489858  -1.878966875773315e-16 
H  1.4097685244844405  -2.2411767558169124  -0.12267827123497074 
Br  -1.654629867976521  1.654629867976521  0.0 
C  -1.352040782177733  -1.3199206589279684  -0.4819701001757076 
C  -1.6380700204479186  -1.599217458033982  -1.8139382277462257 
H  -1.1579680913617836  -1.159339363685303  -2.503515938957912 
C  -2.63068216563725  -2.52632649780156  -2.142289956238523 
H  -2.8368222554424674  -2.694399528648736  -3.0538898079700485 
C  -3.3101544432602585  -3.1961573187854975  -1.1619874135498987 
H  -3.9960123560788676  -3.811990145619169  -1.3868663427944008 
C  -2.9974710358883443  -2.9701089012107795  0.12423560353005347 
H  -3.438659168087169  -3.468581175155742  0.8017084178296768 
C  -2.0389854250767776  -2.015940632791841  0.4912562833419403 
H  -1.8619130127668426  -1.8492165108145995  1.4101568590026907 

-Pd 0
lanl2dz
F 1 1.0
1.472 1.0
****
-H 0
6-31g(d,p)
****
-P 0
6-31+g(d)
****
-N 0
6-31+g(d)
****
-C 0
6-31g(d)
****
-Br 0
6-31+g(d)
****

-Pd 0
lanl2dz


