%chk=GOKOXUMO_PN_Ni_gaussain.chk
%nprocshared=32
%mem=64GB
#p opt rwb97xd/gen pseudo=read

This Gaussian input file was generated using the DART python program. This file was generated on the 2023-10-04 at 16:41:16

0 1
Ni  0.0  0.0  0.0 
P  1.2724242000999508  1.5687691528711287  1.846987097223399e-15 
N  1.272424200099951  -1.5687691528711292  1.6653345369377348e-16 
C  2.563693581820453  -1.4779289424174835  0.05712127445988338 
H  3.037171066697476  -2.299706797776616  0.11159124559882877 
C  3.376751328147245  -0.27324353568240656  0.04822285114066621 
C  2.992724650834126  1.0215183203131502  0.05630724170517831 
C  4.211991984255578  1.9212830291083605  -0.022330907167480485 
H  4.304394107703291  2.312798453080019  -0.9268810386553248 
H  4.153207941777085  2.6543211137082205  0.6404844916247205 
C  5.364897474128425  1.010770081817295  0.2873384555993111 
H  5.628890997369309  1.0995843664078624  1.2373788508139243 
H  6.1445006101467055  1.2364872654780883  -0.27946465246443514 
C  4.890607373269458  -0.4148467407132028  -0.002617654088457655 
H  5.193128239416993  -0.7196956976962868  -0.8944988115145509 
H  5.2154530465181566  -1.0483817564808438  0.6852483447571907 
C  0.985417099619455  2.595318117741227  1.5095180909806871 
H  0.026455972630045732  2.877442348186469  1.4798117697865198 
C  1.132456372739754  1.6958909187695825  2.742645422569092 
H  0.5397446905550543  0.9081883541580824  2.6478512164895016 
H  2.0654188464973333  1.371488508084366  2.8043997625121015 
C  0.7702465004344791  2.454699292724006  4.023324226961988 
H  -0.1943074546127168  2.677261082239688  4.0105865799891545 
H  0.9392183059211048  1.8737499648180997  4.806851570043442 
C  1.579104950102692  3.73274486197208  4.161531250393202 
H  2.5350106798328387  3.505022676495535  4.280929332919222 
H  1.2790561175100452  4.225949453982283  4.965646390457016 
C  1.4206037765705737  4.622001048866645  2.934128894986194 
H  1.9905794657689344  5.425160451060412  3.0353884544885155 
H  0.47950600651274267  4.921927382284709  2.865717333721983 
C  1.8103287045378438  3.8831604311258574  1.6559037457666246 
H  2.774023857454031  3.658440822536664  1.6833609809044368 
H  1.6529755882829842  4.468597353645103  0.8732175656432644 
C  1.3090329148405613  2.7217379256760235  -1.4379160688099493 
H  2.038945186605299  3.3838218614157527  -1.26804191667773 
C  1.6567827409848348  1.9860389365113567  -2.7395405982956254 
H  2.516988814209822  1.5083264900188786  -2.6301292640881972 
H  0.955936468784775  1.3157317003731013  -2.938429315733252 
C  1.764838446115555  2.97573560868167  -3.9041462232535697 
H  2.5286374022000047  3.5855841407292615  -3.7464784312232187 
H  1.9390519409856908  2.4782009404537075  -4.742174756250174 
C  0.4839401288936168  3.7980588502108676  -4.060232344926731 
H  0.609215832427237  4.466591468971606  -4.779573158280931 
H  -0.2592517992098693  3.2000230504356346  -4.3249393342357365 
C  0.11952561685946961  4.513098811920356  -2.7649191408801452 
H  -0.7421547766161634  4.986487339888821  -2.8802583843645557 
H  0.8136907952589937  5.186420953082301  -2.5528868572093204 
C  0.003854822131156288  3.5165341694178367  -1.6066642161935303 
H  -0.7432899366759214  2.891167028430591  -1.7824720327449637 
H  -0.19577897043042913  4.005363324807913  -0.7691856936581074 
C  0.7778044194310565  -2.943643847501984  0.08216457043502486 
C  0.6851629981030963  -3.522790427696525  1.347159596394946 
C  0.15438653349167208  -4.816037787441532  1.4357710579965197 
H  0.08112686484818954  -5.2375264900909  2.2838965584321813 
C  -0.26245686036578175  -5.481703987015118  0.304972218351431 
H  -0.6193869588647993  -6.358605739884432  0.3815322640685859 
C  -0.16747960817512175  -4.891941115717762  -0.9336556261625926 
H  -0.4659812293293051  -5.362774181658773  -1.7027985037769786 
C  0.3676636980937755  -3.5973433947700735  -1.0732879385857734 
C  1.1097716340475523  -2.774959695014866  2.5848306518609254 
H  0.8877105981428947  -3.3047042488767495  3.378989460907729 
H  0.6407441104426234  -1.9153542058758428  2.6241620024999444 
H  2.0767485208517975  -2.618484575937761  2.5565830414096395 
C  0.4972990611910112  -2.956420749676097  -2.4239346783517544 
H  -0.03922444237118117  -3.454413152554621  -3.0749287772502294 
H  1.4377553399113152  -2.965210685387647  -2.7005797304415653 
H  0.17947300043677106  -2.0304261714799687  -2.3780530234467543 
Br  -1.5839191898578664  1.5839191898578664  0.0 
C  -1.2937473829822488  -1.2398794889499034  -0.4598005675376139 
C  -1.601562203225019  -1.4938654694550033  -1.7919791134336869 
H  -1.1309417375171225  -1.0428217585005106  -2.480879663633267 
C  -2.60218398542082  -2.411889969420291  -2.121542410022959 
H  -2.8231586547736818  -2.5626138747145775  -3.03270050271447 
C  -3.2683208079706407  -3.09759503004543  -1.143064365570095 
H  -3.9596020908062854  -3.707191723557817  -1.3683280760515548 
C  -2.9347449854640226  -2.896087320001541  0.14198826503765638 
H  -3.3668350933519986  -3.405606940434718  0.8171022443470677 
C  -1.9675509241539992  -1.9516175659140573  0.5112421903797603 
H  -1.7755298364628027  -1.8022912010877177  1.4301324877763764 

-Ni 0
lanl2dz
F 1 1.0
3.130 1.0
****
-H 0
6-31g(d,p)
****
-P 0
6-31+g(d)
****
-N 0
6-31+g(d)
****
-C 0
6-31g(d)
****
-Br 0
6-31+g(d)
****

-Ni 0
lanl2dz


