%chk=XIZOPIFO_PN_Ni_gaussain.chk
%nprocshared=32
%mem=64GB
#p opt rwb97xd/gen pseudo=read

This Gaussian input file was generated using the DART python program. This file was generated on the 2023-08-11 at 15:55:49

0 0
Ni  0.0  0.0  0.0 
P  1.4255309624838068  -1.4310700454554972  -1.7592544173469195e-15 
N  1.425530962483804  1.4310700454554977  1.6011013043479772e-15 
C  2.3249159104485804  0.9457075978200881  -1.0303216923853398 
C  3.0827618312573053  1.7663376492486378  -1.8502588174174839 
H  2.9849736602038908  2.689799533030409  -1.8044927513395537 
C  3.9859265012620395  1.2087400372142003  -2.7371494994684262 
H  4.498224119180666  1.7592441075787293  -3.281888885952463 
C  4.128093717346491  -0.16611107244881917  -2.817290805479488 
H  4.753322668392801  -0.5338574428457279  -3.399905408655076 
C  3.3525353163863407  -0.9839917930444757  -2.043690266714108 
H  3.4320948320108817  -1.908202120274842  -2.122452786444812 
C  2.4384305773885373  -0.437380100287664  -1.133481470072734 
C  1.6065732288202583  2.605494791705463  0.4884683236357018 
H  2.231877972265547  3.150031586025664  0.0677831236864817 
C  0.9112994920353878  3.1581704853318033  1.652204259581608 
C  0.521502881951374  2.3723958451798732  2.7280267206136877 
H  0.6617599061699218  1.4529514167408755  2.7060845199527614 
C  -0.07632928560840391  2.951226988093176  3.830390162235604 
H  -0.33789885128072084  2.422895302023017  4.551035117680559 
C  -0.28405319596613854  4.309599313174766  3.864460875731706 
H  -0.7206889155269041  4.6907304162483365  4.590906428181138 
C  0.14421004434055984  5.103958218673464  2.8421544753521797 
H  0.030018746128698925  6.024456033705793  2.893228244876259 
C  0.7513688454619463  4.542443135919964  1.7259209952678216 
H  1.047817895893145  5.085681513711988  1.0336568799243033 
C  2.545190517315307  -2.008584219289626  1.2906780505979294 
C  2.217839978051614  -1.8318098847255369  2.6242357430444287 
H  1.4265419186126653  -1.401752266683431  2.8581274194506654 
C  3.065517287073383  -2.291798857376052  3.604610740078502 
H  2.8517484473445176  -2.162087690833596  4.499929290336011 
C  4.237131941123246  -2.950847331624427  3.260024639072416 
H  4.791271095875938  -3.2870225220197185  3.9272847221979297 
C  4.578222798014973  -3.10691719746311  1.9583948129229085 
H  5.375943000473414  -3.530819383052434  1.734088893156428 
C  3.744322632192106  -2.6400504482626226  0.9657761842786533 
H  3.9837772816411157  -2.7445365183014974  0.07312103136399328 
C  0.8506367872822933  -2.8591304688357657  -0.9622055157264333 
C  -0.005976793946878667  -2.6438297496442535  -2.015074317035196 
H  -0.26352977694884294  -1.7762655699993453  -2.2273194939977308 
C  -0.49203311606912825  -3.7053020687832534  -2.7659754606131695 
H  -1.0793014633405797  -3.550436693252693  -3.4708162254351755 
C  -0.1030829921496097  -4.970581634063837  -2.4638574658058885 
H  -0.4092076713784012  -5.681914236708028  -2.979884935212822 
C  0.7316883590828336  -5.209417459106357  -1.4135077479319527 
H  0.9746077690952879  -6.081717780089367  -1.203138072712026 
C  1.2192163007513046  -4.159497289390442  -0.6625599179755552 
H  1.7982901390466381  -4.325711071696457  0.04529476228971896 
Br  -1.5839191898578664  1.5839191898578664  0.0 
C  -1.2937473829822488  -1.2398794889499034  -0.4598005675376139 
C  -1.601562203225019  -1.4938654694550033  -1.7919791134336869 
H  -1.1309417375171225  -1.0428217585005106  -2.480879663633267 
C  -2.60218398542082  -2.411889969420291  -2.121542410022959 
H  -2.8231586547736818  -2.5626138747145775  -3.03270050271447 
C  -3.2683208079706407  -3.09759503004543  -1.143064365570095 
H  -3.9596020908062854  -3.707191723557817  -1.3683280760515548 
C  -2.9347449854640226  -2.896087320001541  0.14198826503765638 
H  -3.3668350933519986  -3.405606940434718  0.8171022443470677 
C  -1.9675509241539992  -1.9516175659140573  0.5112421903797603 
H  -1.7755298364628027  -1.8022912010877177  1.4301324877763764 

-Ni 0
lanl2dz
F 1 1.0
3.130 1.0
****
-P 0
6-31+g(d)
****
-H 0
6-31g(d,p)
****
-N 0
6-31+g(d)
****
-Br 0
6-31+g(d)
****
-C 0
6-31g(d)
****

-Ni 0
lanl2dz
