%chk=PESOJESI_PN_Pd_gaussain.chk
%nprocshared=32
%mem=64GB
#p opt rwb97xd/gen pseudo=read

This Gaussian input file was generated using the DART python program. This file was generated on the 2023-10-04 at 16:41:16

0 1
Pd  0.0  0.0  0.0 
P  1.477483463528447  1.519586330222801  -2.61255893614894e-15 
N  2.9603557155655698  1.0219936926994464  -0.7079610308632505 
N  1.4774834635284422  -1.519586330222801  0.0 
N  1.3318249649532221  3.0099822754587247  -0.7118442162560155 
N  1.7847438634749553  1.6920390134221672  1.5920577780602407 
C  3.999369121671484  1.819016429026918  -1.1042959898427254 
H  3.9720349905379377  2.7675899824548797  -1.161386435735387 
C  5.0766603323868305  1.04616950572786  -1.4009039642174435 
H  5.92340696253892  1.3524468989522132  -1.7057475843340946 
C  4.710813840396343  -0.2742489891567388  -1.1791994025482135 
H  5.2673276228134345  -1.0325441561256667  -1.3031909334340124 
C  3.4213257425608408  -0.29631770241969746  -0.7527376956675782 
C  2.714984413950017  -1.4306720893450287  -0.3003915203111689 
H  3.223593841292877  -2.227768862269017  -0.20642650015929265 
C  1.0785880302445015  -2.7665760486168645  0.6091098304285703 
C  1.5630258984203749  -3.9590406779441873  0.10468026182609615 
H  2.0942049665860814  -3.964626425085488  -0.6835458522880629 
C  1.268529682378472  -5.141704021419056  0.7544379818555418 
C  0.4926481858619085  -5.101456801643767  1.8866294341566263 
H  0.30036132198390186  -5.912597863842766  2.3438237027062696 
C  -0.014876771426268753  -3.9148898431639325  2.381850648134338 
C  0.28287495734685253  -2.745103023786999  1.7248474630396058 
H  -0.06411774865014674  -1.9211309301341042  2.044269927600486 
C  1.8168810276530247  -6.430112271783441  0.21968896359690465 
H  1.5493340108585423  -7.16833032342617  0.8069197036243597 
H  2.7935445642928007  -6.37942136764198  0.18318446475583922 
H  1.4627966306402045  -6.58696145189225  -0.6817540709267913 
C  -0.8357491472117742  -3.8954950615619697  3.6309619302541427 
H  -0.3097177616930322  -3.5082427230168336  4.3614268149273245 
H  -1.0959555409150963  -4.810986707104759  3.866406445198253 
H  -1.6407094656242416  -3.355881043791902  3.4862091147120244 
C  3.0341781751552315  2.3789240124777717  2.012534315893772 
H  3.3308339958887214  2.9097704599328034  1.2177281550914478 
C  4.16974399808979  1.4264840515393273  2.3164754822245888 
H  4.008036314332671  0.9914465470211913  3.1786422901432063 
H  5.012169496043123  1.9250655042225153  2.354453837092322 
H  4.22312749346308  0.7480240525941944  1.6126086111096667 
C  2.866288599032149  3.3758081051228364  3.1300735259711794 
H  2.222113377354694  4.063464810909858  2.859282243314325 
H  3.729414512392299  3.795295295367921  3.3254371738346657 
H  2.536761184579269  2.9161466162638363  3.9300265300807737 
C  0.8359611518567862  1.0767674349637617  2.5619672382037173 
H  0.24134003845138285  0.4810778337896835  2.0220218978723015 
C  1.5271183228430594  0.1764582502928187  3.55950484500929 
H  2.0994405201185504  -0.460964475047164  3.0819000693569727 
H  0.8554422465353724  -0.3148450209668918  4.077262968234287 
H  2.0752919529266576  0.7188879652792304  4.164484221170788 
C  -0.07722145153703508  2.0748660917064976  3.230491751043202 
H  0.43597646723857886  2.607142487534174  3.871546877073013 
H  -0.7938619803115183  1.5985565589049768  3.698832814244258 
H  -0.46709003788389203  2.665920977590021  2.5533972397280285 
C  0.9196472941170515  4.1696501205502425  0.1469784177755345 
H  0.8217638887944905  3.805486279382452  1.0735957906692235 
C  -0.41749565682868206  4.7619038392764725  -0.2087592965465922 
H  -0.34921808674624755  5.225865083845333  -1.069857872182257 
H  -0.6871827668481818  5.398129103857688  0.4836448740054798 
H  -1.0841909462899384  4.047634670481791  -0.27472895259790875 
C  1.9891095627738284  5.253739660075423  0.22868096493046458 
H  2.86889598745614  4.8382589022908835  0.3421704219540659 
H  1.803433056227965  5.8386296214570095  0.9936060645264896 
H  1.9822040188026069  5.783886430270364  -0.5952438893580505 
C  0.9681428897464018  3.1233761061170564  -2.160921663234592 
H  -0.0059238642724606105  3.3453174616638326  -2.2049491934087286 
C  1.1796029977087668  1.8745857759738724  -2.9812499780460704 
H  2.1341606836726514  1.6538401241287306  -3.00141136090436 
H  0.860995103973841  2.0262708467169124  -3.8957901025695767 
H  0.6808939208167645  1.1324410997746281  -2.580546913153059 
C  1.7169044919582226  4.26206388948656  -2.8224330652967766 
H  1.4301749550777605  5.113119758625883  -2.42934622974535 
H  1.5234130727643478  4.266616763424947  -3.783021365265741 
H  2.67965479606925  4.146516423371716  -2.683085819150386 
Br  -1.654629867976521  1.654629867976521  0.0 
C  -1.352040782177733  -1.3199206589279684  -0.4819701001757076 
C  -1.6380700204479186  -1.599217458033982  -1.8139382277462257 
H  -1.1579680913617836  -1.159339363685303  -2.503515938957912 
C  -2.63068216563725  -2.52632649780156  -2.142289956238523 
H  -2.8368222554424674  -2.694399528648736  -3.0538898079700485 
C  -3.3101544432602585  -3.1961573187854975  -1.1619874135498987 
H  -3.9960123560788676  -3.811990145619169  -1.3868663427944008 
C  -2.9974710358883443  -2.9701089012107795  0.12423560353005347 
H  -3.438659168087169  -3.468581175155742  0.8017084178296768 
C  -2.0389854250767776  -2.015940632791841  0.4912562833419403 
H  -1.8619130127668426  -1.8492165108145995  1.4101568590026907 

-Pd 0
lanl2dz
F 1 1.0
1.472 1.0
****
-H 0
6-31g(d,p)
****
-P 0
6-31+g(d)
****
-N 0
6-31+g(d)
****
-C 0
6-31g(d)
****
-Br 0
6-31+g(d)
****

-Pd 0
lanl2dz


