%chk=TIGISABO_PN_Ni_gaussain.chk
%nprocshared=32
%mem=64GB
#p opt rwb97xd/gen pseudo=read

This Gaussian input file was generated using the DART python program. This file was generated on the 2023-10-04 at 16:41:16

0 1
Ni  0.0  0.0  0.0 
C  2.7463678288765414  0.8907339210728396  0.20875424129778658 
C  2.878753600733441  -0.47777892376240394  0.08481271907540472 
C  4.1386715460407295  -1.1246152818221757  0.1535034534189294 
H  4.190321657441105  -2.070799019202502  0.07500924274497306 
C  5.269405886295667  -0.40231931337051985  0.3323602836680724 
H  6.115305948488089  -0.8358224804079983  0.3328282060692755 
C  5.193708886289123  0.9944649587881751  0.5165845525365202 
C  6.391854059886466  1.7130063853558195  0.7618970293728755 
H  7.2246898163706845  1.257426604362519  0.7226253363681874 
C  6.372841617449421  3.045543237113879  1.0528035362428743 
H  7.1825007564910255  3.5178849407563746  1.2064794080199495 
C  5.154881948128571  3.698157336406812  1.12088944750261 
H  5.115451651113132  4.595657981155922  1.4295145831481273 
C  3.98923058201531  3.047205932015154  0.740458202993378 
H  3.1979846950628414  3.5592794570194934  0.6261226382270135 
C  3.9336910168924146  1.6748530081382251  0.5186752707546505 
C  1.3249344701907533  2.1152039879145272  -1.3716607270646535 
C  1.2815971067799143  0.9324723679200624  -2.4594364291273005 
H  1.1769123624163251  1.316086816776534  -3.3553750090121617 
H  0.5247862848945083  0.3398656955172634  -2.2675413491986074 
H  2.116510641899804  0.4191207105303998  -2.4188539855228903 
C  2.362848999622006  3.0664977261594073  -1.7984551777919386 
H  3.2369320398891053  2.623823679914829  -1.7878746532819603 
H  2.37774188651292  3.830059927199949  -1.1846387988460991 
H  2.1662026615580503  3.379917480032155  -2.706222116828831 
C  -0.08764767090715031  2.802778763964395  -1.5676462163011933 
H  -0.16592832500961108  3.1325499700649635  -2.4873448304244734 
H  -0.17497384746090772  3.552754839715522  -0.9430293619901196 
H  -0.7963522563095835  2.1489565919056606  -1.3933852684270998 
C  0.909923456653865  2.4418122301140333  1.0884470439020137 
H  1.3016484313478065  2.1830642662353306  1.948606200912896 
H  -0.06729895621351067  2.410940104587488  1.151909770404763 
H  1.193267564368675  3.352440196366426  0.8612491704473211 
C  1.38670763956424  -2.4330347654885665  -1.5366706891512991 
C  0.23130620132575452  -3.1084966912003584  -1.902213235827037 
H  -0.5316469650674691  -3.082573040099076  -1.336572961267181 
C  0.18706463124146877  -3.8173003024479106  -3.085386762474317 
H  -0.6015942042120028  -4.293646561128544  -3.3193225295176596 
C  1.2733117430147534  -3.841596015224823  -3.929133158321369 
H  1.2266086959134606  -4.310588919288312  -4.754694792198331 
C  2.421694304529383  -3.184816384314371  -3.5743524530536233 
H  3.181023248783997  -3.221460986674588  -4.144152801890916 
C  2.485457320637926  -2.4625802861029538  -2.3839913371660484 
H  3.277872587044949  -1.9923535235593324  -2.1537231297364396 
C  1.5698009956688623  -2.6575212164544295  1.3684931369148485 
C  1.0943404295911883  -2.302458073614617  2.625516380415877 
H  0.620420899643781  -1.4874939399260605  2.7394515810155697 
C  1.3089929026293108  -3.130923820482394  3.709103438332983 
H  0.9744166417502729  -2.891547546750268  4.56463559741901 
C  2.009406200206292  -4.304022621245634  3.5424361463252363 
H  2.1679306584247735  -4.866611507862755  4.2905021599908055 
C  2.4845619796252802  -4.671391839268252  2.296753432736325 
H  2.9637409463401596  -5.483178481892741  2.190393314672608 
C  2.258016332289648  -3.8490184689037488  1.208320205850713 
H  2.5745824614405093  -4.102012671550835  0.34842030510561867 
N  1.3820524782004484  1.4731024904941272  4.599065930659378e-17 
P  1.3820524782004484  -1.4731024904941277  -5.551115123125783e-17 
Br  -1.5839191898578664  1.5839191898578664  0.0 
C  -1.2937473829822488  -1.2398794889499034  -0.4598005675376139 
C  -1.601562203225019  -1.4938654694550033  -1.7919791134336869 
H  -1.1309417375171225  -1.0428217585005106  -2.480879663633267 
C  -2.60218398542082  -2.411889969420291  -2.121542410022959 
H  -2.8231586547736818  -2.5626138747145775  -3.03270050271447 
C  -3.2683208079706407  -3.09759503004543  -1.143064365570095 
H  -3.9596020908062854  -3.707191723557817  -1.3683280760515548 
C  -2.9347449854640226  -2.896087320001541  0.14198826503765638 
H  -3.3668350933519986  -3.405606940434718  0.8171022443470677 
C  -1.9675509241539992  -1.9516175659140573  0.5112421903797603 
H  -1.7755298364628027  -1.8022912010877177  1.4301324877763764 

-Ni 0
lanl2dz
F 1 1.0
3.130 1.0
****
-H 0
6-31g(d,p)
****
-P 0
6-31+g(d)
****
-N 0
6-31+g(d)
****
-C 0
6-31g(d)
****
-Br 0
6-31+g(d)
****

-Ni 0
lanl2dz


