%chk=GAKUCEYI_PN_Pd_gaussain.chk
%nprocshared=32
%mem=64GB
#p opt rwb97xd/gen pseudo=read

This Gaussian input file was generated using the DART python program. This file was generated on the 2023-08-11 at 15:55:49

0 0
Pd  0.0  0.0  0.0 
P  1.4278016922878298  -1.566359577970526  1.342683202202733e-15 
N  1.4278016922878327  1.566359577970525  3.194356500759187e-15 
C  1.769398388126053  2.5204897094032974  0.7679781570360663 
H  2.4159058353947263  3.13036898516815  0.43435951304461595 
C  1.2543126093547252  2.771441984684365  2.1369799744339817 
H  0.5568984015767591  2.0906171281200003  2.3586514599109383 
C  0.6277264500395998  4.179909932292189  2.182143737742009 
H  0.28482573070136286  4.355146773730368  3.0837670271928137 
H  1.3080011794458033  4.847695346772338  1.9562318240701129 
H  -0.10798343544252487  4.2305989861446065  1.53747692905441 
C  2.396065216899419  2.673533731587907  3.1471621249100847 
H  2.0494969152202263  2.8408416848099534  4.04929685490326 
H  2.7899759518432887  1.7770274441750025  3.110641589247074 
H  3.081437592755891  3.340587347306063  2.9328130167472337 
C  2.1193796451390607  1.4762380490538412  -1.2958386879376123 
H  2.6173822485667193  2.316265679685639  -1.4597859256527064 
H  1.4500964145543447  1.3720520452171983  -2.0178004901561524 
C  3.0950105077504952  0.2907545840081532  -1.329526579283736 
H  3.7163012682823116  0.41220860559781375  -2.0899856850333354 
H  3.6322241025616826  0.2975935053839713  -0.4981686763896399 
C  2.4177975976075827  -1.0659951207776988  -1.4618799052686722 
H  3.113125524738974  -1.7514982262595258  -1.6246653349788753 
H  1.825170193473114  -1.0470600209340037  -2.255374903276069 
C  0.8650430282988124  -3.2460865493527713  -0.4513547692407138 
C  0.5649786717243404  -3.575651904115591  -1.770154389673492 
H  0.6679827793063312  -2.919854404328903  -2.449781554444552 
C  0.11920044730584367  -4.842046720413212  -2.1079674206370815 
H  -0.07780057920657768  -5.052325815732279  -3.0130324059419133 
C  -0.03930951026093665  -5.806412311331458  -1.1186741070009873 
H  -0.3429159569771567  -6.678104513558154  -1.3439235023154446 
C  0.2460705837314876  -5.4863136398312475  0.19575351841500188 
H  0.13394379507496668  -6.143533140690567  0.873262995068877 
C  0.6918326403328313  -4.228665474170355  0.5371436768911072 
H  0.8837380882988594  -4.024721740884096  1.4455114287924162 
C  2.716317476865671  -1.8424883999108859  1.255655588363178 
C  3.7375172926660793  -2.7629828223142763  1.0228563518235005 
H  3.724355200108591  -3.301070906847226  0.24078434580156885 
C  4.78074387530159  -2.8912957862254154  1.9441760469212583 
H  5.471090702447886  -3.5262205978632153  1.7939649893530616 
C  4.808291614543633  -2.095498140186153  3.0739343124900724 
H  5.529614949033928  -2.172237116147049  3.6870416739597296 
C  3.787499832048857  -1.1846615129740803  3.3179585435002887 
H  3.805231903231319  -0.6465043798002429  4.100007578833572 
C  2.742106693011449  -1.0658997212269876  2.4109783443368387 
H  2.039387933257904  -0.4496331700620907  2.580440235645084 
Br  -1.654629867976521  1.654629867976521  0.0 
C  -1.352040782177733  -1.3199206589279684  -0.4819701001757076 
C  -1.6380700204479186  -1.599217458033982  -1.8139382277462257 
H  -1.1579680913617836  -1.159339363685303  -2.503515938957912 
C  -2.63068216563725  -2.52632649780156  -2.142289956238523 
H  -2.8368222554424674  -2.694399528648736  -3.0538898079700485 
C  -3.3101544432602585  -3.1961573187854975  -1.1619874135498987 
H  -3.9960123560788676  -3.811990145619169  -1.3868663427944008 
C  -2.9974710358883443  -2.9701089012107795  0.12423560353005347 
H  -3.438659168087169  -3.468581175155742  0.8017084178296768 
C  -2.0389854250767776  -2.015940632791841  0.4912562833419403 
H  -1.8619130127668426  -1.8492165108145995  1.4101568590026907 

-Pd 0
lanl2dz
F 1 1.0
1.472 1.0
****
-P 0
6-31+g(d)
****
-H 0
6-31g(d,p)
****
-N 0
6-31+g(d)
****
-Br 0
6-31+g(d)
****
-C 0
6-31g(d)
****

-Pd 0
lanl2dz
