%chk=YOTAPIKU_PN_Pd_gaussain.chk
%nprocshared=32
%mem=64GB
#p opt rwb97xd/gen pseudo=read

This Gaussian input file was generated using the DART python program. This file was generated on the 2023-08-13 at 16:51:13

0 1
Pd  0.0  0.0  0.0 
P  2.39971577650289  1.4387890554221052  1.2666725753117214 
P  1.4357354274029737  -1.5590906909157014  2.427766199512032e-16 
N  1.4357354274029737  1.5590906909157014  -2.7420026926792165e-16 
C  3.4850768127711342  -0.02810883789849356  1.3182954532081905 
C  4.7369261018222755  0.05521031137030531  1.9187261959815138 
H  4.9951321062148395  0.8626719666384829  2.346863398951796 
C  5.613090719735506  -1.0180692417371515  1.903995846411093 
H  6.473467279056318  -0.9371290624805596  2.2977380254485853 
C  5.228271384953176  -2.2084318202668087  1.311763526106006 
H  5.831343041650115  -2.9418896952082405  1.2813452326756043 
C  3.971222545930043  -2.326264417222474  0.7681071314914665 
H  3.6983142461422194  -3.1611292731183886  0.4083473890287777 
C  3.086390236299465  -1.2497137747359872  0.7331408906902533 
C  1.927651453109253  2.1870855540143603  -1.2734062570817977 
H  2.7230482903092668  2.7449230679367784  -1.0338954234372975 
C  2.4052250020195056  1.1449905146002315  -2.2749096990178512 
H  3.0824924744120743  0.5751638007493465  -1.8558248066381626 
H  2.793375541794919  1.5943064261644002  -3.054949665998605 
H  1.6461723458014146  0.5939077905443438  -2.559391115520615 
C  0.8613838685061118  3.1435868779521803  -1.8316159805100207 
H  0.007446492863381726  2.6369191070503843  -1.946173731927461 
C  1.2767537038252357  3.7116076224541317  -3.1871043661933633 
H  0.603760408035267  4.356405064872032  -3.4906507746272273 
H  1.347766790625193  2.983543346518196  -3.8386255796692033 
H  2.1438863288728394  4.159804352812124  -3.1022666889828945 
C  0.6203910406241051  4.283338465434451  -0.8589122097035642 
H  0.34624427297962623  3.919959523913573  0.00871078713854039 
H  -0.08782825779809933  4.865181750937749  -1.2072021413081124 
H  1.4446595166949798  4.800741420054242  -0.7514461596853567 
C  3.515142326239376  2.8571395323281106  1.4130696955138344 
C  4.69597324729979  2.9324086656016055  0.6615397403930119 
H  4.924809453402217  2.230303690965986  0.06297896205168571 
C  5.5287752454000785  4.033238097782981  0.7930127536065 
H  6.3227427147685615  4.0886627728859075  0.2749696444212018 
C  5.2073728789477585  5.053228476960983  1.676431032352866 
H  5.800386139089532  5.787067744084064  1.7912481187307074 
C  4.0321274775403495  5.001596262447071  2.3864801721278117 
H  3.800633455368547  5.71717128736416  2.9669956253361196 
C  3.183640377221128  3.915908460664462  2.263381440808829 
H  2.3734041217249255  3.8895665902144003  2.758045989913278 
C  1.4094923509949888  1.4096180519230792  2.7656955438249935 
C  0.2727286925134631  2.231824991178874  2.8425740440402354 
H  -0.03895457737773511  2.687087298327354  2.0689760664318526 
C  -0.39586245559555544  2.3793875199916634  4.0508785117803345 
H  -1.147026374716185  2.9584442581662445  4.106880213414774 
C  0.023833130439877337  1.6881967981953105  5.174868930407222 
H  -0.4391838143443172  1.7906696376079843  5.998379067579462 
C  1.1248197495784193  0.8450795262757678  5.09197200483791 
H  1.4001538530329922  0.35486210374013255  5.857903300789044 
C  1.8271689588202435  0.7104750281392658  3.902434869075079 
H  2.5887204201240723  0.1454929747330951  3.861097826184088 
C  1.7523421558103898  -2.160093519333373  -1.682872463902477 
C  0.6456380033540902  -2.53608189731266  -2.4489848045944442 
H  -0.22530909983103542  -2.51205518083089  -2.071317556413497 
C  0.823461113473245  -2.9467395990939202  -3.7659215090245812 
H  0.06946305852481771  -3.1915781817525097  -4.289215481449005 
C  2.0850852725445526  -2.999973298380043  -4.319927352412508 
H  2.1990036653764373  -3.297027871727529  -5.214763220171505 
C  3.1763923589841605  -2.62544910078058  -3.5785543838607765 
H  4.043567625166222  -2.6601178825999696  -3.9655506025621943 
C  3.023964386849964  -2.1946217160018966  -2.2630179845787692 
H  3.78296999960718  -1.9248049552123565  -1.7599199271385737 
C  0.9486216589576442  -3.0328863709158447  0.9659730017986659 
C  0.44878255016278823  -2.8338806223677775  2.2475934594084976 
H  0.29160538240711364  -1.952526052677581  2.5642504511558957 
C  0.1790718605172048  -3.927498283569112  3.066677981908753 
H  -0.17011503938841832  -3.789673042707853  3.9397604762446474 
C  0.41347203883112793  -5.201700917562912  2.621069158017578 
H  0.23549632324661407  -5.940896361237273  3.190212514926225 
C  0.9092030611509866  -5.4137619329524735  1.3456787592526667 
H  1.0721034444910433  -6.29875698682558  1.0411651475243893 
C  1.1719195713307091  -4.328764318730004  0.5045334968808546 
H  1.499015396346969  -4.473829911333318  -0.37576991961802475 
Br  -1.654629867976521  1.654629867976521  0.0 
C  -1.352040782177733  -1.3199206589279684  -0.4819701001757076 
C  -1.6380700204479186  -1.599217458033982  -1.8139382277462257 
H  -1.1579680913617836  -1.159339363685303  -2.503515938957912 
C  -2.63068216563725  -2.52632649780156  -2.142289956238523 
H  -2.8368222554424674  -2.694399528648736  -3.0538898079700485 
C  -3.3101544432602585  -3.1961573187854975  -1.1619874135498987 
H  -3.9960123560788676  -3.811990145619169  -1.3868663427944008 
C  -2.9974710358883443  -2.9701089012107795  0.12423560353005347 
H  -3.438659168087169  -3.468581175155742  0.8017084178296768 
C  -2.0389854250767776  -2.015940632791841  0.4912562833419403 
H  -1.8619130127668426  -1.8492165108145995  1.4101568590026907 

-Pd 0
lanl2dz
F 1 1.0
1.472 1.0
****
-C 0
6-31g(d)
****
-N 0
6-31+g(d)
****
-H 0
6-31g(d,p)
****
-Br 0
6-31+g(d)
****
-P 0
6-31+g(d)
****

-Pd 0
lanl2dz


