%chk=COGOMEXA_PN_Ni_gaussain.chk
%nprocshared=32
%mem=64GB
#p opt rwb97xd/gen pseudo=read

This Gaussian input file was generated using the DART python program. This file was generated on the 2023-08-13 at 16:51:13

0 1
Ni  0.0  0.0  0.0 
P  1.3704309969859845  -1.4839201065084335  -2.1179621972552026e-16 
N  1.3704309969859847  1.4839201065084335  -1.236439674256494e-15 
C  1.8783200486578133  -1.506746234311026  1.7426458673756695 
C  0.9507877111129037  -1.2327803023063895  2.7189591577232575 
H  0.08453614396663611  -0.9992705847143052  2.472930817472113 
C  1.281848520221051  -1.2964833174386685  4.0439005928575815 
H  0.6418635839187359  -1.1127198292266083  4.6925545003508615 
C  2.544894193713122  -1.629048819338346  4.4110670722906224 
H  2.766275123729907  -1.688298471401403  5.312350447570191 
C  3.497619873585175  -1.8774630691239067  3.455355651716481 
H  4.3686099706329244  -2.085729392657439  3.705918017858292 
C  3.159410954590488  -1.81766274388349  2.129891209261055 
H  3.8044593461414524  -1.9875511488550874  1.4834852977675574 
C  1.0309123085879863  -3.215043725450651  -0.4266947107346273 
C  0.9253458630329263  -4.17153878456786  0.516474021495858 
H  1.1085383568284666  -3.969817907758446  1.4061860356196532 
C  0.5362905164110574  -5.47837625613694  0.15252454674987126 
H  0.4349351574059773  -6.134260377344827  0.8031685436854626 
C  0.3138240165089863  -5.770150825469216  -1.1396549752641212 
H  0.08674648686496855  -6.639482543087983  -1.3809379424888728 
C  0.41467197691339275  -4.830033784207149  -2.089159039294897 
H  0.26107532553876567  -5.053699393658956  -2.9793124383419767 
C  0.7468117369223094  -3.5317227386528565  -1.7535172677393482 
H  0.7795183875062465  -2.8734844172527363  -2.4100487576527736 
C  2.864244762235619  -1.0327935114418458  -0.9278878649785182 
C  3.6440473415719032  -2.0017073253957705  -1.5555738759663051 
H  3.404471821190274  -2.8973974061288654  -1.4865638092353115 
C  4.7668093704787395  -1.6521518252546648  -2.2774243374652343 
H  5.255195401414545  -2.3107799183126163  -2.714427426495095 
C  5.165106244984036  -0.362669941016091  -2.360172207406682 
H  5.922069745414657  -0.1327368344401402  -2.8503295755204348 
C  4.428235413927695  0.6154842187892446  -1.6999877195596034 
H  4.716324334957086  1.5004432164066401  -1.71882454827716 
C  3.277948399112753  0.29144918624872085  -1.0212855011790898 
C  2.5912748894963  1.4002507469145815  -0.33466211077063207 
H  3.1213844775170223  2.133019377941835  -0.11705581933825569 
C  0.9795959728026882  2.7059316029809333  0.7981528527548486 
H  0.008058684068374955  2.663702216961328  0.9277179543648527 
C  1.2682562497112737  3.9815054978948243  0.02213173632225837 
H  1.0320063381279112  4.741125732876522  0.5577229310624406 
H  0.7525370366767641  3.9871619547102473  -0.7879865438093405 
H  2.202710322097714  4.018258915252533  -0.1943424490046442 
C  1.5922932071099551  2.6888678878328336  2.1404041029675724 
H  1.2603490543779539  1.9364405367221653  2.634553777426253 
H  1.3694325318973686  3.4997914070453278  2.6037428833775635 
H  2.5462485509872677  2.6205568988817416  2.0561203520041924 
Br  -1.5839191898578664  1.5839191898578664  0.0 
C  -1.2937473829822488  -1.2398794889499034  -0.4598005675376139 
C  -1.601562203225019  -1.4938654694550033  -1.7919791134336869 
H  -1.1309417375171225  -1.0428217585005106  -2.480879663633267 
C  -2.60218398542082  -2.411889969420291  -2.121542410022959 
H  -2.8231586547736818  -2.5626138747145775  -3.03270050271447 
C  -3.2683208079706407  -3.09759503004543  -1.143064365570095 
H  -3.9596020908062854  -3.707191723557817  -1.3683280760515548 
C  -2.9347449854640226  -2.896087320001541  0.14198826503765638 
H  -3.3668350933519986  -3.405606940434718  0.8171022443470677 
C  -1.9675509241539992  -1.9516175659140573  0.5112421903797603 
H  -1.7755298364628027  -1.8022912010877177  1.4301324877763764 

-Ni 0
lanl2dz
F 1 1.0
3.130 1.0
****
-C 0
6-31g(d)
****
-N 0
6-31+g(d)
****
-H 0
6-31g(d,p)
****
-Br 0
6-31+g(d)
****
-P 0
6-31+g(d)
****

-Ni 0
lanl2dz


