%chk=HUQAKOHU_PN_Ni_gaussain.chk
%nprocshared=32
%mem=64GB
#p opt rwb97xd/gen pseudo=read

This Gaussian input file was generated using the DART python program. This file was generated on the 2023-08-11 at 15:55:49

0 0
Ni  0.0  0.0  0.0 
C  3.0968081972081096  1.1098037344470169  -0.2670394573667737 
H  3.2234590239101344  1.1294945848748166  -1.2380488798262805 
C  3.4932187428534873  -0.3180461307046967  0.17204789372338572 
H  4.429539873902569  -0.4482868574398726  -0.04737934398984528 
H  3.4193618073170993  -0.3614189446996881  1.1399751647925254 
C  2.7393524195406407  -1.4670191847184557  -0.38539020842347504 
H  3.158016363969278  -2.2870906700954228  -0.04662951042697189 
C  4.053279816782824  2.1197134596349447  0.27725998036855665 
H  3.8885077264987205  2.239721446669545  1.2171052555661985 
H  3.9321153479045563  2.954079125982538  -0.177257308963534 
H  4.951856130835054  1.8104129957666086  0.14801339095459665 
C  1.0398791108389616  1.974782475390228  1.6702906387616714 
C  -0.1292939476515642  2.688784945673537  1.9365411255767608 
H  -0.7019226628863677  2.9090502344618  1.2409320061400035 
C  -0.45030458397064077  3.059383025566437  3.223281676173405 
H  -1.2078430013851973  3.5711200310600484  3.3945588297855607 
C  0.3561744544686045  2.6802228747817685  4.207695832215001 
H  0.15813780995519977  2.9696707527208486  5.070223497502577 
C  1.442320295068367  1.895477786068117  4.035244828484516 
H  1.9276939006926002  1.575477390006273  4.759608673167291 
C  1.8101438637668443  1.5877155042768996  2.72055035438927 
H  2.593813026575985  1.1118933663943518  2.5635064867505957 
C  1.1910925203614022  2.9950239809296444  -1.0148979943059286 
C  0.94643180752508  2.887660585297003  -2.2915273754783443 
H  0.7886118299766139  2.045988830483304  -2.6516786934482126 
C  0.9157052124860887  4.019896616713156  -3.156114679063323 
H  0.758189424493454  3.9476871903539212  -4.069885616048067 
C  1.1316492942595702  5.172701027853796  -2.561391690436104 
H  1.0663205188794476  5.943007525588909  -3.090574221000362 
C  1.4202269944316868  5.340962771956463  -1.27537724789086 
H  1.6111584714077236  6.188664811439693  -0.9437917184181094 
C  1.435189377945169  4.207024035788336  -0.40847684432823356 
H  1.6031540994888198  4.286045823700368  0.5011345833440269 
C  2.792004363303521  -1.5212625774188482  -1.8653625991005378 
H  2.3672400955531616  -2.325760145532181  -2.171988168390237 
H  3.708655774445995  -1.513299179456318  -2.151884561161788 
H  2.3353493565127224  -0.7590627357107758  -2.228392661317267 
C  1.191616175298215  -1.9170429410922531  1.3841748389702937 
H  0.2440154897479907  -1.9032004742026702  1.5945297696355045 
H  1.6155230556428535  -1.2440383879764416  1.9391814499956712 
C  1.7188766064342698  -3.240806338704027  1.8076440998400385 
C  2.672352048670761  -3.3624967787960065  2.744579678117526 
H  2.992385245504984  -2.6108378878515603  3.186715420382551 
C  3.1829546408160443  -4.653556781346934  3.0695519118663923 
H  3.8176720125555645  -4.765920273370505  3.7396643454716476 
C  2.7188046417470852  -5.690663870339577  2.367028912722933 
H  3.0700389393969276  -6.533664021124373  2.539114600481243 
C  1.8064277224234062  -5.583386592406606  1.4669289445389813 
H  1.534583947033212  -6.340563371679764  1.0024391742413605 
C  1.2278664907203667  -4.369327677054152  1.1695886828462763 
H  0.5282104963572627  -4.307645007397342  0.5584963266383051 
N  1.3410881029969677  -1.5104908804756154  -6.327342082906962e-16 
H  1.0270479671038135  -2.3060937043877994  -0.47872199618481653 
P  1.3410881029969657  1.5104908804756154  4.81152032583521e-16 
Br  -1.5839191898578664  1.5839191898578664  0.0 
C  -1.2937473829822488  -1.2398794889499034  -0.4598005675376139 
C  -1.601562203225019  -1.4938654694550033  -1.7919791134336869 
H  -1.1309417375171225  -1.0428217585005106  -2.480879663633267 
C  -2.60218398542082  -2.411889969420291  -2.121542410022959 
H  -2.8231586547736818  -2.5626138747145775  -3.03270050271447 
C  -3.2683208079706407  -3.09759503004543  -1.143064365570095 
H  -3.9596020908062854  -3.707191723557817  -1.3683280760515548 
C  -2.9347449854640226  -2.896087320001541  0.14198826503765638 
H  -3.3668350933519986  -3.405606940434718  0.8171022443470677 
C  -1.9675509241539992  -1.9516175659140573  0.5112421903797603 
H  -1.7755298364628027  -1.8022912010877177  1.4301324877763764 

-Ni 0
lanl2dz
F 1 1.0
3.130 1.0
****
-P 0
6-31+g(d)
****
-H 0
6-31g(d,p)
****
-N 0
6-31+g(d)
****
-Br 0
6-31+g(d)
****
-C 0
6-31g(d)
****

-Ni 0
lanl2dz
