%chk=UPICUYIK_PN_Ni_gaussain.chk
%nprocshared=32
%mem=64GB
#p opt rwb97xd/gen pseudo=read

This Gaussian input file was generated using the DART python program. This file was generated on the 2023-10-04 at 09:55:46

0 1
Ni  0.0  0.0  0.0 
P  1.429333678676885  -1.427271955515136  -3.3628314812595466e-15 
N  -0.1344101067187904  -3.8391563351514972  -0.7285006540165775 
N  1.4293336786768855  1.427271955515136  -1.0629688228835647e-15 
C  2.9512498427995473  -0.4491885604020061  -0.27674914920591703 
H  3.6276023888665287  -0.7476348574472382  0.39740795504258053 
C  3.433255829177499  -0.9069492677958484  -1.6411637320443375 
C  4.367007267601947  -0.27742381434033786  -2.383556980055081 
H  4.70622339941022  0.5559650155905997  -2.078819709496689 
C  4.873737645866442  -0.8166463269288573  -3.6206752992395357 
H  5.767134043594645  -1.2099036054952386  -3.4573514204561118 
H  4.9845098409176165  -0.07793968036025331  -4.270720444686304 
C  3.9711383563095217  -1.884070943599148  -4.2358361483007165 
H  3.2032860356607484  -1.4395885010284675  -4.675206358852935 
H  4.477128667356344  -2.368578634882421  -4.9337059156743495 
C  3.449108315979199  -2.8783179891720616  -3.2341177750229124 
H  4.188069855091518  -3.474351213052624  -2.9519007490600657 
H  2.754039598743815  -3.437943526487209  -3.661982690978299 
C  2.8641601199206255  -2.199943127773944  -2.0184810014137295 
C  1.852866180087658  -2.669192483099693  -1.2185532173084852 
C  1.0850776425080002  -3.9226832513354357  -1.279449239420527 
C  1.5917131648600065  -5.113166297284966  -1.775578672933449 
H  2.4960000388169883  -5.178857639175138  -2.059936259767013 
C  0.741719204806583  -6.205706498873381  -1.8462636486062343 
H  1.027546918460585  -7.0060830603169215  -2.2711291896885246 
C  -0.4949999001550043  -6.128248860493526  -1.3079275271359443 
H  -1.0696377814770979  -6.884394720313551  -1.3029642593927508 
C  -0.906748054241636  -4.927316516537145  -0.7638619953792605 
H  -1.7819559472609647  -4.872328478205183  -0.3966204404905383 
C  2.7110074356279465  0.9985603440835535  -0.0587733355080239 
C  3.7713254665391243  1.8802904867778998  0.12215860967822044 
H  4.666178154827456  1.563698243615025  0.073766897244572 
C  3.5304444554536887  3.18471507650372  0.3654759502380099 
H  4.254742813607493  3.792332021297534  0.4647857522475026 
C  2.266365059356918  3.62278805732841  0.46559240160848125 
H  2.094478223110559  4.53738284422651  0.6534734844881533 
C  1.1953999674145692  2.7251965646562106  0.29069101761325494 
H  0.3014237576078094  3.036511786175876  0.37986023399268265 
C  1.5265189093179108  -2.1081886205169607  1.639981626808089 
C  0.5982521924086894  -1.840205676886604  2.6064122265936223 
H  -0.1662300058099997  -1.328400682626522  2.3683546989723014 
C  0.7129224039163904  -2.2715394620290463  3.906825963981653 
H  0.050369823516818624  -2.0553351753774343  4.552645477963244 
C  1.8534229081477844  -3.055544791690366  4.2612798014705815 
H  1.9591601930926041  -3.39157440268829  5.143190770392711 
C  2.7530283364469836  -3.302713517059649  3.335494359494961 
H  3.5268091424058943  -3.7960979854357824  3.581366624492068 
C  2.6365117289196487  -2.8870113183950252  2.0390923955209086 
H  3.304630552539177  -3.122310473333433  1.40390269534423 
Br  -1.5839191898578664  1.5839191898578664  0.0 
C  -1.2937473829822488  -1.2398794889499034  -0.4598005675376139 
C  -1.601562203225019  -1.4938654694550033  -1.7919791134336869 
H  -1.1309417375171225  -1.0428217585005106  -2.480879663633267 
C  -2.60218398542082  -2.411889969420291  -2.121542410022959 
H  -2.8231586547736818  -2.5626138747145775  -3.03270050271447 
C  -3.2683208079706407  -3.09759503004543  -1.143064365570095 
H  -3.9596020908062854  -3.707191723557817  -1.3683280760515548 
C  -2.9347449854640226  -2.896087320001541  0.14198826503765638 
H  -3.3668350933519986  -3.405606940434718  0.8171022443470677 
C  -1.9675509241539992  -1.9516175659140573  0.5112421903797603 
H  -1.7755298364628027  -1.8022912010877177  1.4301324877763764 

-Ni 0
lanl2dz
F 1 1.0
3.130 1.0
****
-P 0
6-31+g(d)
****
-N 0
6-31+g(d)
****
-C 0
6-31g(d)
****
-H 0
6-31g(d,p)
****
-Br 0
6-31+g(d)
****

-Ni 0
lanl2dz


