%chk=EFUSICOZ_PN_Pd_gaussain.chk
%nprocshared=32
%mem=64GB
#p opt rwb97xd/gen pseudo=read

This Gaussian input file was generated using the DART python program. This file was generated on the 2023-10-04 at 16:41:16

0 1
Pd  0.0  0.0  0.0 
P  1.4485495020882095  -1.5471924056173487  2.0186816513148455e-16 
N  1.4485495020882095  1.5471924056173492  3.2568182204593296e-17 
C  3.1976507560558476  -1.0655077183772816  -0.1004762431987834 
C  4.173010889682976  -1.9903645395488148  0.26800801706668226 
C  5.511444666883774  -1.6593896988368264  0.24865449377694296 
C  5.872938754143089  -0.39633760337346  -0.13989063747832875 
C  4.915894001894737  0.5508757649698512  -0.49513701258394843 
C  3.5610160030673748  0.23512780225601299  -0.48235842363041787 
C  2.6133730278885228  1.3100478729348746  -0.9206231989044099 
C  2.1392932438839902  1.1016253400752132  -2.34804755984079 
C  1.9820061582875725  1.8068654356434317  1.366282856305282 
C  0.8281800947021645  2.835672825222665  -0.4283668365702626 
C  1.1151423087833274  -2.8544681346453444  -1.2542659493691586 
C  1.036463628109764  -2.3123878885460596  -2.6806057553047835 
C  0.5537683157692253  -3.3837760584864225  -3.6495672585423002 
C  1.3880849496204297  -4.635195302124343  -3.587447365336479 
C  1.4939901693202287  -5.139285050217956  -2.1836678704344696 
C  2.0346707722550574  -4.07252972359687  -1.2124898750414532 
C  1.3330446523198  -2.432804644292517  1.6201679426494007 
C  1.7003956291877171  -1.5297640496468177  2.7973444265362444 
C  1.6945664153699371  -2.34334518243278  4.0893385057181115 
C  0.3687914865645694  -3.0457787169138073  4.334608943781186 
C  0.02068982747586179  -3.919861394084387  3.1457880285841004 
C  -0.02023695578377671  -3.0983748191856066  1.8597379146020911 
H  3.9247205417335054  -2.8160205183152582  0.5226415337968342 
H  6.134367452981827  -2.261595673101694  0.48534168633194735 
H  6.743889699118096  -0.17366728858314498  -0.1651679466380618 
H  5.175779887800227  1.3772993341120532  -0.7373204568434188 
H  3.13022721648498  2.1040890054660277  -0.880231521804516 
H  1.5414567472532175  1.7996615029201743  -2.5883393380125206 
H  2.8868692380963035  1.1078906629689944  -2.932965040009165 
H  1.6920992609127963  0.26533321163517226  -2.4151343506687137 
H  1.2605861453017915  1.9595345213643838  1.9645890781756183 
H  2.4813602126074192  1.0541271299410475  1.6585651540289699 
H  2.5443906184396416  2.5719756609147737  1.346065978091615 
H  0.08207508418665244  3.0278031762512354  0.12884048705111836 
H  1.4662109745124479  3.533827072928525  -0.3560393672464136 
H  0.5364966528037936  2.76122582717523  -1.3303831746728836 
H  0.2570707411141857  -3.1662210867984033  -0.9905895727600815 
H  1.8962229770843044  -2.01720875740382  -2.9484330175261566 
H  0.42833120802803304  -1.5819331655931927  -2.7013604502290045 
H  0.5941884837052732  -3.035498101560315  -4.5317756493114425 
H  -0.34399727993997  -3.604990070885503  -3.4361358272131315 
H  0.9855791424600753  -5.302627688846771  -4.127861405083972 
H  2.25721804356466  -4.444426591698682  -3.913103140862558 
H  0.6295133122020269  -5.407719278884095  -1.8906742555083658 
H  2.0770289086768186  -5.887090200889143  -2.1714390095255123 
H  2.0553843393368285  -4.42516189010644  -0.332180774053887 
H  2.909965160357713  -3.8192985814470557  -1.475328271782687 
H  1.9729162697836986  -3.1303037633949007  1.5616404105338584 
H  1.0649423392301811  -0.8254029203888423  2.8645490087652083 
H  2.5643518386918016  -1.1650941495416203  2.6582718123499065 
H  1.8669270556140638  -1.7573161166824116  4.8180616038771005 
H  2.3792716545309025  -2.9973275289892585  4.0398909996330445 
H  -0.31375110294911135  -2.395904404999254  4.458167359979998 
H  0.43749175723847356  -3.585118289012495  5.112526927104468 
H  0.6741101801864152  -4.600737092656383  3.0586144904103487 
H  -0.8328757530343411  -4.31431914076424  3.2874566060899864 
H  -0.2244774728598682  -3.669664994079734  1.127575550604908 
H  -0.6913254735192567  -2.4295978162458005  1.9338062054049594 
Br  -1.654629867976521  1.654629867976521  0.0 
C  -1.352040782177733  -1.3199206589279684  -0.4819701001757076 
C  -1.6380700204479186  -1.599217458033982  -1.8139382277462257 
H  -1.1579680913617836  -1.159339363685303  -2.503515938957912 
C  -2.63068216563725  -2.52632649780156  -2.142289956238523 
H  -2.8368222554424674  -2.694399528648736  -3.0538898079700485 
C  -3.3101544432602585  -3.1961573187854975  -1.1619874135498987 
H  -3.9960123560788676  -3.811990145619169  -1.3868663427944008 
C  -2.9974710358883443  -2.9701089012107795  0.12423560353005347 
H  -3.438659168087169  -3.468581175155742  0.8017084178296768 
C  -2.0389854250767776  -2.015940632791841  0.4912562833419403 
H  -1.8619130127668426  -1.8492165108145995  1.4101568590026907 

-Pd 0
lanl2dz
F 1 1.0
1.472 1.0
****
-H 0
6-31g(d,p)
****
-P 0
6-31+g(d)
****
-N 0
6-31+g(d)
****
-C 0
6-31g(d)
****
-Br 0
6-31+g(d)
****

-Pd 0
lanl2dz


