%chk=TEHAVIYU_PN_Pd_gaussain.chk
%nprocshared=32
%mem=64GB
#p opt rwb97xd/gen pseudo=read

This Gaussian input file was generated using the DART python program. This file was generated on the 2023-10-04 at 16:41:16

0 1
Pd  0.0  0.0  0.0 
C  2.334729432973872  -1.2568671098552002  -1.049826712774885 
C  1.985452519980837  -2.310911081558608  1.0110189737736877 
C  4.018895990499348  -2.610853386786567  0.02420692189134864 
C  5.304978178155867  -3.1694953927064935  0.0619725916781621 
H  5.560664312507988  -3.711863591654078  0.7737541785926096 
C  6.184254671060209  -2.906396844843351  -0.9687766373481036 
H  7.042826654581686  -3.263449019609645  -0.9391978678222841 
C  5.802554408277084  -2.100933247466744  -2.0714762984945354 
H  6.41095431462627  -1.9324705596763943  -2.7536640855274017 
C  4.560294920323303  -1.5764624340603852  -2.134489158084679 
H  4.317894783346167  -1.0621812240086916  -2.8688398240347066 
C  3.618505152394473  -1.798014334572744  -1.1023163632465292 
C  1.0259599496651561  -2.6039955258509297  2.1371510468552315 
H  0.2381479640799795  -2.032651379201966  2.018420252794403 
C  0.5659384556070882  -4.071061312545892  2.0487706615105026 
H  -0.051137965856096645  -4.256290819524673  2.7606288354599333 
H  1.326185521867922  -4.650812885320515  2.126342126026443 
H  0.13360502176180122  -4.220591497426485  1.204397340171452 
C  1.6410094912223419  -2.2854621814401317  3.5177746885218464 
H  1.002513202245455  -2.4852321260060495  4.206711803366828 
H  1.8728991233870838  -1.3541792175041272  3.5571866102851217 
H  2.4293703724877607  -2.8172669066687734  3.6474518457813994 
C  1.7720405457701465  -0.3438878285862375  -2.105979778476577 
C  1.4311998325826667  0.9473997654124475  -1.7653770071740646 
C  0.8150010478638972  1.7904800597094257  -2.730681008553561 
H  0.5871214998806162  2.663765667720756  -2.5086653143983497 
C  0.554891785155341  1.3106960337580673  -4.0017245600871885 
H  0.1557086068389646  1.8709864984410332  -4.6269560414879365 
C  0.8859761969395006  -0.015028744099211047  -4.370579498577653 
C  0.6134989861827491  -0.5232076723118113  -5.667654826590248 
H  0.23673826768506867  0.03521278651392746  -6.308492280366135 
C  0.8917399357848459  -1.8118844994610357  -5.987046669211727 
H  0.7088840513973849  -2.125661420213868  -6.843326798344566 
C  1.4586000563196713  -2.6782519209540827  -5.026371482313084 
H  1.6242101585665596  -3.567516912480856  -5.242308901207229 
C  1.7570304335235043  -2.21746258498175  -3.799818985345959 
H  2.1491538678603215  -2.7941172041417652  -3.1840861598077077 
C  1.490274076863869  -0.8635860485562519  -3.4148311669696003 
C  3.2407932480882256  1.2277895685866966  0.4476183924675687 
C  3.5313177930540083  0.5358109630702215  1.6280849816940137 
H  2.8503620114948798  0.32466358208950924  2.223631543321393 
C  4.830651740114751  0.16813857110632213  1.9029831195618296 
H  5.016252342946755  -0.32878444055053124  2.666570335742338 
C  5.855435179927403  0.5278767234896319  1.054940035039798 
H  6.7283139296016365  0.27720481633559685  1.2584407557534858 
C  5.610795614967724  1.2561057081626685  -0.08910487628950119 
H  6.307445020895591  1.5254535013951374  -0.6423647713670266 
C  4.282795278530502  1.577758739803062  -0.39804411571895487 
H  4.096283027374804  2.0355034953384266  -1.185413113679078 
C  1.199815310817907  3.2743281880434187  0.06391753418331553 
C  2.2209509357849857  4.172011419088403  0.40304729124358346 
H  3.080640494450532  3.8589515530441307  0.5706669887549102 
C  1.94316924635355  5.542595995327494  0.4900069508113111 
H  2.619325326358389  6.135560520884181  0.7246873226020477 
C  0.6908332052075554  6.014308276532483  0.23041855775954775 
H  0.5205798615367733  6.927131927457826  0.2710514419821005 
C  -0.32100506461090506  5.139686788579118  -0.09000464449186558 
H  -1.174046607504828  5.47048502895881  -0.25541211185318113 
C  -0.09073130308022392  3.7785784537731075  -0.17112841210729005 
H  -0.787613986159077  3.2000174744252563  -0.3808270749568417 
N  1.5065796842517163  -1.4907439937829705  1.4352892056965482e-15 
N  3.167874675393651  -2.864094732433042  1.0566912278693879 
P  1.5065796842517156  1.490743993782971  -1.8256348603344572e-16 
Br  -1.654629867976521  1.654629867976521  0.0 
C  -1.352040782177733  -1.3199206589279684  -0.4819701001757076 
C  -1.6380700204479186  -1.599217458033982  -1.8139382277462257 
H  -1.1579680913617836  -1.159339363685303  -2.503515938957912 
C  -2.63068216563725  -2.52632649780156  -2.142289956238523 
H  -2.8368222554424674  -2.694399528648736  -3.0538898079700485 
C  -3.3101544432602585  -3.1961573187854975  -1.1619874135498987 
H  -3.9960123560788676  -3.811990145619169  -1.3868663427944008 
C  -2.9974710358883443  -2.9701089012107795  0.12423560353005347 
H  -3.438659168087169  -3.468581175155742  0.8017084178296768 
C  -2.0389854250767776  -2.015940632791841  0.4912562833419403 
H  -1.8619130127668426  -1.8492165108145995  1.4101568590026907 

-Pd 0
lanl2dz
F 1 1.0
1.472 1.0
****
-H 0
6-31g(d,p)
****
-P 0
6-31+g(d)
****
-N 0
6-31+g(d)
****
-C 0
6-31g(d)
****
-Br 0
6-31+g(d)
****

-Pd 0
lanl2dz


