%chk=OHOTALUM_PN_Pd_gaussain.chk
%nprocshared=32
%mem=64GB
#p opt rwb97xd/gen pseudo=read

This Gaussian input file was generated using the DART python program. This file was generated on the 2023-10-04 at 16:41:16

0 1
Pd  0.0  0.0  0.0 
P  1.3892422349971942  -1.6006579936076288  3.9722302270219503e-16 
N  1.3892422349971942  1.6006579936076293  -3.6255752253389427e-16 
C  3.4355955370986964  0.25764823538006426  0.48594428928004746 
C  3.120779077470649  -1.0448945491037775  0.06603027268099323 
C  4.133038752789899  -1.8986451725708087  -0.3440766922101373 
C  5.465757507621849  -1.4948734595746165  -0.3549253927485319 
C  5.77582334419895  -0.2108925915767783  0.07200409511013207 
C  4.800347053813753  0.6341310020963885  0.46450334737955457 
C  2.4366743221769616  1.216382750266185  0.9976036939091347 
C  1.9004461838607698  0.8519159857669555  2.3478680240509857 
C  2.0192406118204307  1.9762013060457706  -1.293569776116902 
C  0.6467487110778845  2.7746770829476164  0.5620630879209293 
C  1.081990826419925  -2.549032437781439  1.5197093325913793 
C  -0.123128872778687  -2.4200554602981357  2.2090914544097067 
C  -0.37362527555576475  -3.2151066799104835  3.3102208566094347 
C  0.5376363045771623  -4.141437630008163  3.692087225205556 
C  1.7288952337259853  -4.2724513323964874  3.052181065280728 
C  2.0006418248467974  -3.4823203893400616  1.9500170742889191 
C  1.349183832550843  -2.864977819005685  -1.3041078841487417 
C  1.674104681743085  -2.3403398961304185  -2.7037213742385213 
C  1.4727667760059173  -3.3804217541216874  -3.7876960355617726 
C  0.0225847884980801  -3.6700387315468093  -4.008252013705616 
H  3.950276430390442  -2.802193207676255  -0.6708128422888339 
H  6.107477671248035  -2.079293194293606  -0.6711079591031077 
H  6.619203769004029  0.09234416914187717  0.08012727210374586 
H  4.926687601780206  1.5013875869157725  0.7207870027830201 
H  -0.7676783888379484  -1.8177672551662156  1.921495888889752 
H  -1.2419698908901442  -3.1178855148511944  3.7173472056514907 
H  0.41471829068913313  -4.612292892662573  4.319676823185383 
H  2.422624632843461  -4.959589730725452  3.1831232752132417 
H  2.726023824864032  -3.5929384168681864  1.4298059574941981 
H  2.0011052132460314  -3.633115375504463  -1.0385808089029784 
H  0.638259612533163  -3.1616564111199787  -1.2806520453585468 
H  1.063293870240892  -1.6735009965886791  -2.7976201208222475 
H  2.6282366465227325  -2.0189965691647918  -2.7377291674687965 
H  1.859701296801838  -3.092899546480863  -4.5489330989854 
H  2.0911783243548543  -4.175142747038445  -3.59525344597704 
H  2.8104397850606793  1.8847350649220052  1.1177850246120993 
H  -0.3002908159787214  -4.323644295120095  -3.278355527003701 
H  -0.026405546317618267  -4.021966121563697  -4.703353063374345 
H  -0.5300962829150369  -2.9141858449016342  -3.920731347278701 
H  1.4044287398313384  1.5306302703540406  2.737814167916975 
H  2.438558113380404  0.5929524085034857  2.9027283460776974 
H  1.4527723306615357  0.12923111515769997  2.264903399335169 
H  1.230190290882582  2.1961669710448537  -1.946833993145056 
H  2.717984403836014  1.1729318317828135  -1.8888544515764556 
H  2.727236863924186  2.708546000965872  -1.0771018689587255 
H  -0.015450077985213362  3.0487779381909936  -0.08058934140478628 
H  1.25442555111513  3.510360411118131  0.6173332311657869 
H  0.1322671105817208  2.473286531732678  1.3422609400003056 
Br  -1.654629867976521  1.654629867976521  0.0 
C  -1.352040782177733  -1.3199206589279684  -0.4819701001757076 
C  -1.6380700204479186  -1.599217458033982  -1.8139382277462257 
H  -1.1579680913617836  -1.159339363685303  -2.503515938957912 
C  -2.63068216563725  -2.52632649780156  -2.142289956238523 
H  -2.8368222554424674  -2.694399528648736  -3.0538898079700485 
C  -3.3101544432602585  -3.1961573187854975  -1.1619874135498987 
H  -3.9960123560788676  -3.811990145619169  -1.3868663427944008 
C  -2.9974710358883443  -2.9701089012107795  0.12423560353005347 
H  -3.438659168087169  -3.468581175155742  0.8017084178296768 
C  -2.0389854250767776  -2.015940632791841  0.4912562833419403 
H  -1.8619130127668426  -1.8492165108145995  1.4101568590026907 

-Pd 0
lanl2dz
F 1 1.0
1.472 1.0
****
-H 0
6-31g(d,p)
****
-P 0
6-31+g(d)
****
-N 0
6-31+g(d)
****
-C 0
6-31g(d)
****
-Br 0
6-31+g(d)
****

-Pd 0
lanl2dz


