%chk=FECEPIVA_PN_Pd_gaussain.chk
%nprocshared=32
%mem=64GB
#p opt rwb97xd/gen pseudo=read

This Gaussian input file was generated using the DART python program. This file was generated on the 2023-08-11 at 15:55:49

0 0
Pd  0.0  0.0  0.0 
N  1.4123038837304092  1.5803473478953922  2.708353310710241e-15 
P  1.4123038837304103  -1.5803473478953922  -1.1102230246251565e-16 
C  2.921856377864499  -1.0417394455671105  0.8355279378950407 
C  3.4604853035041723  0.1930004188042529  0.4701619189545233 
C  4.648971206273923  0.6035053314514327  1.0678515337297467 
H  5.041557394071338  1.4034987327019066  0.7992917208269309 
C  5.2596147471887384  -0.15570516844141702  2.0563499873408295 
H  6.039725850094771  0.14311072834791294  2.4640464270465965 
C  4.698610480072733  -1.3598029590531797  2.4292124994300988 
H  5.104573489361014  -1.8740157054359394  3.088370823770418 
C  3.539187623767816  -1.8024454584578762  1.8289587380937018 
H  3.166791302310021  -2.6122649843389136  2.087989827475898 
C  1.9995387361744785  -2.286163086116148  -1.5787637637578817 
C  1.0710445117588518  -2.68237634950655  -2.5453983147338017 
H  0.1677325618014036  -2.4939556770534015  -2.425800190766986 
C  1.4913058394026844  -3.3473634622444792  -3.671564237846177 
H  0.8672305383642653  -3.6325563602489708  -4.300193659335194 
C  2.831200114700903  -3.5972200020272354  -3.878340325803461 
H  3.1086639320226808  -4.043775343762597  -4.646227457382627 
C  3.7563472642843054  -3.1890001439946682  -2.948953711349817 
H  4.659976769533776  -3.349347855108601  -3.0976718971345907 
C  3.355619449354529  -2.54041530512047  -1.7917080956207339 
H  3.985545228854828  -2.2779004468821906  -1.1610272321683088 
C  0.8644798205854284  -3.042284992854778  0.941963198904263 
C  0.9946411950018159  -4.3282248229221345  0.42829479413677424 
H  1.3452584741419074  -4.453986555154407  -0.423963488471473 
C  0.6046734724270033  -5.4221717215595335  1.1806906794999592 
H  0.6760882053661352  -6.281095382745598  0.8278338527643002 
C  0.10749983092853599  -5.236584445198683  2.460302465571091 
H  -0.14960869984783454  -5.9705358778028375  2.9703866723255543 
C  -0.005374107338151468  -3.9792452769163393  2.972641698856257 
H  -0.34336689804608334  -3.8611852945659595  3.830617965425968 
C  0.37835863430806427  -2.876270103565157  2.2266321480061335 
H  0.30904683754482987  -2.021946772812576  2.590237677888811 
C  2.764260935838069  1.0976462815659578  -0.5132436651541313 
H  2.635014836885407  0.6215096391992776  -1.3472298183373383 
H  3.3283504307442406  1.8668329490532272  -0.6925407713670625 
C  1.5539359272646163  2.0304416331468413  1.4373844992305798 
H  2.1132244230046786  1.3804315000150233  1.9135564170909167 
C  2.3051218842810495  3.3532548253124776  1.3571740472066947 
H  2.0069324363716214  3.9594281841476455  2.0518095791181974 
H  3.2596856183740277  3.213579822665775  1.4536379844585214 
C  1.9790774928088561  3.909604194437498  -0.019248607454203925 
H  2.7926838864471994  4.0483256598747985  -0.5292634123939856 
H  1.5154287528426427  4.7571146621733895  0.06015556753575859 
C  0.21767854491626348  2.1417192774154863  2.1602194139971544 
H  -0.36616605280325  2.719894253452768  1.6650288720862165 
H  0.3580897191101047  2.5016903437494777  3.038404436394987 
H  -0.1811806830097793  1.2710287600222925  2.2318291145957354 
C  1.156157625695693  2.7792013039722754  -2.223052967541208 
H  0.6217645167252864  2.0421222361640097  -2.524720305653636 
H  2.068127543651025  2.6440995237944325  -2.4903156617903996 
H  0.8260034683428461  3.5927330580592267  -2.611050657579236 
C  1.081474081811717  2.872679443570342  -0.716139544118917 
H  0.15462376902988262  3.098189879914992  -0.4886544659360321 
Br  -1.654629867976521  1.654629867976521  0.0 
C  -1.352040782177733  -1.3199206589279684  -0.4819701001757076 
C  -1.6380700204479186  -1.599217458033982  -1.8139382277462257 
H  -1.1579680913617836  -1.159339363685303  -2.503515938957912 
C  -2.63068216563725  -2.52632649780156  -2.142289956238523 
H  -2.8368222554424674  -2.694399528648736  -3.0538898079700485 
C  -3.3101544432602585  -3.1961573187854975  -1.1619874135498987 
H  -3.9960123560788676  -3.811990145619169  -1.3868663427944008 
C  -2.9974710358883443  -2.9701089012107795  0.12423560353005347 
H  -3.438659168087169  -3.468581175155742  0.8017084178296768 
C  -2.0389854250767776  -2.015940632791841  0.4912562833419403 
H  -1.8619130127668426  -1.8492165108145995  1.4101568590026907 

-Pd 0
lanl2dz
F 1 1.0
1.472 1.0
****
-P 0
6-31+g(d)
****
-H 0
6-31g(d,p)
****
-N 0
6-31+g(d)
****
-Br 0
6-31+g(d)
****
-C 0
6-31g(d)
****

-Pd 0
lanl2dz
