%chk=TARUFANE_PN_Pd_gaussain.chk
%nprocshared=32
%mem=64GB
#p opt rwb97xd/gen pseudo=read

This Gaussian input file was generated using the DART python program. This file was generated on the 2023-08-11 at 15:55:49

0 0
Pd  0.0  0.0  0.0 
C  2.334729432973865  -1.2568671098552007  -1.0498267127748857 
C  1.9854525199808377  -2.3109110815586087  1.0110189737736899 
C  4.018895990499361  -2.6108533867865678  0.0242069218913442 
C  5.30497817815588  -3.1694953927064944  0.06197259167815633 
H  5.560664312507997  -3.7118635916540788  0.7737541785926028 
C  6.184254671060213  -2.9063968448433517  -0.9687766373481147 
H  7.04282665458169  -3.263449019609646  -0.9391978678222883 
C  5.802554408277102  -2.100933247466745  -2.071476298494552 
H  6.410954314626261  -1.9324705596763951  -2.7536640855274004 
C  4.560294920323296  -1.576462434060386  -2.1344891580846768 
H  4.317894783346157  -1.062181224008692  -2.868839824034704 
C  3.618505152394471  -1.7980143345727448  -1.1023163632465318 
C  1.0259599496651588  -2.6039955258509306  2.1371510468552293 
H  0.23814796407997751  -2.0326513792019667  2.018420252794408 
C  0.5659384556070954  -4.0710613125458925  2.048770661510491 
H  -0.051137965856089984  -4.256290819524674  2.7606288354599315 
H  1.326185521867926  -4.650812885320517  2.1263421260264344 
H  0.13360502176179967  -4.2205914974264855  1.2043973401714518 
C  1.6410094912223494  -2.2854621814401326  3.517774688521844 
H  1.002513202245461  -2.4852321260060504  4.206711803366831 
H  1.8728991233870895  -1.3541792175041276  3.557186610285122 
H  2.429370372487765  -2.8172669066687743  3.647451845781402 
C  1.7720405457701445  -0.34388782858623795  -2.1059797784765797 
C  1.431199832582668  0.9473997654124474  -1.7653770071740642 
C  0.8150010478638888  1.7904800597094257  -2.730681008553565 
H  0.5871214998806138  2.663765667720756  -2.508665314398348 
C  0.5548917851553357  1.3106960337580673  -4.001724560087192 
H  0.1557086068389575  1.8709864984410334  -4.626956041487937 
C  0.8859761969394939  -0.015028744099211492  -4.370579498577658 
C  0.6134989861827465  -0.5232076723118118  -5.667654826590242 
H  0.2367382676850487  0.03521278651392724  -6.308492280366105 
C  0.8917399357848419  -1.8118844994610366  -5.987046669211721 
H  0.7088840513973698  -2.125661420213869  -6.843326798344565 
C  1.45860005631967  -2.6782519209540836  -5.026371482313091 
H  1.6242101585665498  -3.567516912480857  -5.2423089012072195 
C  1.757030433523495  -2.217462584981751  -3.7998189853459716 
H  2.1491538678603215  -2.794117204141766  -3.184086159807709 
C  1.490274076863868  -0.8635860485562523  -3.414831166969598 
C  3.240793248088223  1.2277895685866966  0.44761839246756546 
C  3.5313177930540105  0.5358109630702212  1.6280849816940097 
H  2.8503620114948873  0.324663582089509  2.2236315433213916 
C  4.830651740114753  0.1681385711063219  1.9029831195618172 
H  5.0162523429467605  -0.3287844405505317  2.6665703357423345 
C  5.8554351799274045  0.5278767234896317  1.0549400350397842 
H  6.728313929601631  0.2772048163355966  1.2584407557534845 
C  5.610795614967742  1.2561057081626685  -0.08910487628950607 
H  6.307445020895589  1.5254535013951374  -0.6423647713670295 
C  4.282795278530502  1.577758739803062  -0.3980441157189644 
H  4.096283027374808  2.0355034953384266  -1.1854131136790833 
C  1.1998153108179073  3.274328188043419  0.06391753418331415 
C  2.220950935784985  4.1720114190884034  0.40304729124358313 
H  3.080640494450537  3.8589515530441316  0.5706669887549088 
C  1.9431692463535528  5.542595995327495  0.4900069508113116 
H  2.619325326358388  6.135560520884182  0.7246873226020444 
C  0.6908332052075566  6.014308276532484  0.23041855775954825 
H  0.5205798615367704  6.927131927457827  0.2710514419821037 
C  -0.32100506461090306  5.139686788579119  -0.0900046444918637 
H  -1.1740466075048226  5.4704850289588105  -0.25541211185318 
C  -0.09073130308022925  3.7785784537731084  -0.17112841210728982 
H  -0.7876139861590787  3.2000174744252567  -0.3808270749568406 
N  1.5065796842517147  -1.490743993782971  -7.8822812391041835e-16 
N  3.167874675393653  -2.864094732433043  1.0566912278693876 
P  1.5065796842517156  1.490743993782971  -1.8256348603344572e-16 
Br  -1.654629867976521  1.654629867976521  0.0 
C  -1.352040782177733  -1.3199206589279684  -0.4819701001757076 
C  -1.6380700204479186  -1.599217458033982  -1.8139382277462257 
H  -1.1579680913617836  -1.159339363685303  -2.503515938957912 
C  -2.63068216563725  -2.52632649780156  -2.142289956238523 
H  -2.8368222554424674  -2.694399528648736  -3.0538898079700485 
C  -3.3101544432602585  -3.1961573187854975  -1.1619874135498987 
H  -3.9960123560788676  -3.811990145619169  -1.3868663427944008 
C  -2.9974710358883443  -2.9701089012107795  0.12423560353005347 
H  -3.438659168087169  -3.468581175155742  0.8017084178296768 
C  -2.0389854250767776  -2.015940632791841  0.4912562833419403 
H  -1.8619130127668426  -1.8492165108145995  1.4101568590026907 

-Pd 0
lanl2dz
F 1 1.0
1.472 1.0
****
-P 0
6-31+g(d)
****
-H 0
6-31g(d,p)
****
-N 0
6-31+g(d)
****
-Br 0
6-31+g(d)
****
-C 0
6-31g(d)
****

-Pd 0
lanl2dz
