%chk=ACEDAGAC_PN_Pd_gaussain.chk
%nprocshared=32
%mem=64GB
#p opt rwb97xd/gen pseudo=read

This Gaussian input file was generated using the DART python program. This file was generated on the 2023-08-11 at 15:55:49

0 0
Pd  0.0  0.0  0.0 
P  1.5786548854958768  -1.4141954435296422  1.0152296327540988e-16 
N  1.5786548854958768  1.4141954435296422  -1.731889923287348e-16 
H  1.314707200682843  2.0819702651221887  -0.574829737686636 
H  1.7189558913265632  1.8014633013817956  0.8231281334260886 
C  1.7084679742748903  -2.816280190070151  1.1218338092160212 
C  2.8687313708857554  0.878783136507787  -0.48062341113774326 
H  3.6006611512842186  1.5073070997738092  -0.25944248030002964 
H  2.842503041571976  0.7611745020287481  -1.4624020337596664 
C  3.1096690748929543  -0.4551561882376469  0.19623801536361113 
H  3.315439839104841  -0.32476549800902604  1.1553082007501554 
H  3.869417582467854  -0.9260730993668704  -0.22979611243631204 
C  1.6337431642404612  -2.0663909687096584  -1.677762563201419 
H  2.4526697405940068  -2.5901757421573994  -1.7984276105273886 
H  1.6239523116227408  -1.3238075762904706  -2.3172271396309743 
H  0.8538472788215747  -2.639151207547907  -1.8314855826638572 
C  1.761624117991487  -2.5790251476111146  2.495812138453046 
H  1.6830430496487878  -1.6922989028495175  2.828175738369046 
C  1.7952873118821355  -4.12664012898701  0.6442770135369549 
H  1.7418358801809966  -4.298587935856677  -0.28891563332746495 
C  1.930395829281068  -3.6439066722194458  3.3763112571444 
H  1.9723472094439456  -3.4831859698300267  4.311885277479461 
C  1.959804953718336  -5.182715399087183  1.5399676685108263 
H  2.0180505969400007  -6.073450060808355  1.2170350324175356 
C  2.037260438059249  -4.932968122912623  2.892678977692851 
H  2.164991415464805  -5.654371278090174  3.4984950100912293 
Br  -1.654629867976521  1.654629867976521  0.0 
C  -1.352040782177733  -1.3199206589279684  -0.4819701001757076 
C  -1.6380700204479186  -1.599217458033982  -1.8139382277462257 
H  -1.1579680913617836  -1.159339363685303  -2.503515938957912 
C  -2.63068216563725  -2.52632649780156  -2.142289956238523 
H  -2.8368222554424674  -2.694399528648736  -3.0538898079700485 
C  -3.3101544432602585  -3.1961573187854975  -1.1619874135498987 
H  -3.9960123560788676  -3.811990145619169  -1.3868663427944008 
C  -2.9974710358883443  -2.9701089012107795  0.12423560353005347 
H  -3.438659168087169  -3.468581175155742  0.8017084178296768 
C  -2.0389854250767776  -2.015940632791841  0.4912562833419403 
H  -1.8619130127668426  -1.8492165108145995  1.4101568590026907 

-Pd 0
lanl2dz
F 1 1.0
1.472 1.0
****
-P 0
6-31+g(d)
****
-H 0
6-31g(d,p)
****
-N 0
6-31+g(d)
****
-Br 0
6-31+g(d)
****
-C 0
6-31g(d)
****

-Pd 0
lanl2dz
