%chk=WETAROGE_PN_Ni_gaussain.chk
%nprocshared=32
%mem=64GB
#p opt rwb97xd/gen pseudo=read

This Gaussian input file was generated using the DART python program. This file was generated on the 2023-08-11 at 15:55:49

0 0
Ni  0.0  0.0  0.0 
P  1.4934261263952764  1.3600655884919666  0.0 
N  1.4934261263952764  -1.360065588491967  0.0 
C  1.2668367598820243  1.7279263550853956  1.7593703604939137 
C  0.432235883893755  2.791569812607185  2.1073328772550277 
C  0.13026255470284176  3.0357171116857407  3.438264530199708 
C  0.6662796323795723  2.233177352400853  4.432500059239935 
C  1.4741476392051798  1.1676002271043255  4.0835656189901 
C  1.773009649882101  0.9006923455495073  2.7678778363691197 
C  1.7067836946082036  2.9530598884229633  -0.8177718804615609 
C  2.4100282032053433  3.964583719803338  -0.16711827086767644 
C  2.7317568364376053  5.129124579745371  -0.8490285230885855 
C  2.3546521628444994  5.280639721179462  -2.1679389738283255 
C  1.6249906721157812  4.300065154567023  -2.805961824720356 
C  1.3042818545744181  3.1280476956388537  -2.1393874925421783 
C  3.0988609381189987  0.4525522005761953  -0.28652397117751127 
C  4.299660078207703  1.0857119851383705  0.4151393115838551 
C  3.3506502407558303  0.4596253778416146  -1.822660998672485 
C  2.7870062281417605  -0.9636181049571066  0.12394459715718481 
C  3.782279782201703  -1.8236252324787434  0.5649467663138559 
C  3.4488137231646725  -3.118043442818162  0.9125145643216811 
C  2.1485274868700923  -3.5244697429004264  0.8375346583177745 
C  1.1963000562631467  -2.6331726905692197  0.3829504473013541 
H  0.05747737112935658  3.3522784000846215  1.428582085697714 
H  -0.44704135866865924  3.7559846879621075  3.676628747671464 
H  0.48216633789645336  2.421443067059447  5.349818425718393 
H  1.8171003649926032  0.6140057818284645  4.787414635494871 
H  2.3306456072055113  0.12493263665938481  2.532460604283763 
H  2.6538601080402295  3.858651273442608  0.7696959524405782 
H  3.208719618593788  5.851299600796425  -0.3955362591989484 
H  2.628138785025858  6.0877563038563  -2.634845494939229 
H  1.3368109768102197  4.424874628048531  -3.719685978140238 
H  0.78760965386313  2.443203208813209  -2.6024156513799372 
H  4.150079208284629  1.0968438600480124  1.360522860580806 
H  5.085619266677593  0.5941043702869708  0.2332028196975855 
H  4.4175011253259875  1.9892611377660623  0.11981444571602906 
H  2.6082829724520824  0.06418358845236982  -2.2767810050098847 
H  3.466321086494309  1.3490525718207562  -2.14072131065204 
H  4.1353626086321515  -0.046254839128570646  -2.0269659564687363 
H  4.695212611844699  -1.5065858016979778  0.6003581753551575 
H  4.1344386993307385  -3.732899415262273  1.2219673154923452 
H  1.898857207196405  -4.412493574412237  1.107973627615382 
H  0.27732524596734476  -2.9210200071343575  0.29962541872016807 
Br  -1.5839191898578664  1.5839191898578664  0.0 
C  -1.2937473829822488  -1.2398794889499034  -0.4598005675376139 
C  -1.601562203225019  -1.4938654694550033  -1.7919791134336869 
H  -1.1309417375171225  -1.0428217585005106  -2.480879663633267 
C  -2.60218398542082  -2.411889969420291  -2.121542410022959 
H  -2.8231586547736818  -2.5626138747145775  -3.03270050271447 
C  -3.2683208079706407  -3.09759503004543  -1.143064365570095 
H  -3.9596020908062854  -3.707191723557817  -1.3683280760515548 
C  -2.9347449854640226  -2.896087320001541  0.14198826503765638 
H  -3.3668350933519986  -3.405606940434718  0.8171022443470677 
C  -1.9675509241539992  -1.9516175659140573  0.5112421903797603 
H  -1.7755298364628027  -1.8022912010877177  1.4301324877763764 

-Ni 0
lanl2dz
F 1 1.0
3.130 1.0
****
-P 0
6-31+g(d)
****
-H 0
6-31g(d,p)
****
-N 0
6-31+g(d)
****
-Br 0
6-31+g(d)
****
-C 0
6-31g(d)
****

-Ni 0
lanl2dz
