%chk=RAYIRUWI_PN_Ni_gaussain.chk
%nprocshared=32
%mem=64GB
#p opt rwb97xd/gen pseudo=read

This Gaussian input file was generated using the DART python program. This file was generated on the 2023-10-04 at 16:41:16

0 1
Ni  0.0  0.0  0.0 
P  1.381767907428741  -1.473369420749596  3.960493277135605e-15 
N  1.3817679074287406  1.473369420749596  1.526311928792887e-16 
C  2.9020177319802443  -0.4453583675343022  0.2502103823152318 
H  3.383040924442597  -0.7723879998955193  1.0637984155796332 
C  3.727826388830115  -0.7892669099976085  -0.982972149466907 
C  4.632590761862147  -0.015007858646035347  -1.5768629817687523 
H  4.8205758902282625  0.8362985227242689  -1.1958245892787356 
C  5.377280026857369  -0.42488171749995407  -2.833605464709941 
H  5.347426151455963  0.3180410516200318  -3.487145329788274 
H  6.326343372503034  -0.5917655326092052  -2.6080166170103007 
C  4.800107414296942  -1.6472661410097786  -3.4573242206173926 
H  5.47913553488471  -2.0413556285631405  -4.060653589412728 
H  4.026088440427941  -1.380591446621116  -4.013671814719794 
C  4.351965703548641  -2.7017215532916388  -2.4864924995672526 
H  3.9104162152582584  -3.43870480725897  -2.9794201136874485 
H  5.138852255482133  -3.0761373666178993  -2.0164813793610437 
C  3.399421909009264  -2.117717488946233  -1.4924717440935027 
C  2.232115790459344  -2.634198738850854  -1.0765786279050726 
C  1.6198796905577044  -3.934160929613271  -1.4729717541893423 
C  0.5528015361031865  -3.9740846983379368  -2.3367708714479702 
H  0.2025957630250712  -3.166031956620054  -2.6934046936030915 
C  -0.01989905439077022  -5.194015595970889  -2.6941221533098663 
H  -0.7640481456205284  -5.212845652852269  -3.284282867844296 
C  0.4862691790624468  -6.364508871935992  -2.196414839355826 
H  0.10066232029291089  -7.1958904472212994  -2.449989535936581 
C  1.53075310039686  -6.337355023460135  -1.3515587885478342 
H  1.8664879711155127  -7.152003857008846  -0.9990546827827315 
C  2.131267563043493  -5.129705763918184  -0.9817347410874059 
H  2.881193259547463  -5.127136577978331  -0.400500666891254 
C  2.58396378127511  1.0074124989270152  0.4285852516272799 
C  3.526351175806153  1.8657038019707748  0.9635676978331998 
H  4.35448575348896  1.523348902448445  1.2793253961070523 
C  3.2685651201251815  3.216402168567472  1.0418748620614142 
H  3.909385213783043  3.809776516974409  1.4148988562186124 
C  2.074251926031636  3.688285642059324  0.5724438108309233 
H  1.8807380697678087  4.619449687327758  0.5914563917507538 
C  1.1549702389203205  2.791546968517553  0.07212281275434322 
H  0.3210907955590374  3.1235005933940427  -0.2350383743621982 
C  1.0162340006596877  -2.297820887498508  1.5600957669251516 
C  1.9649193862529124  -3.1006899258678344  2.1785872271651257 
H  2.8032971858681215  -3.2522442997100685  1.7566752732201407 
C  1.6981493081893926  -3.6794416754230608  3.4007034605229696 
H  2.3529113024374797  -4.221739865372934  3.8221299239366773 
C  0.47938808656072607  -3.470331790515003  4.010521761894797 
H  0.303882675520299  -3.8452093006773853  4.8647882092459795 
C  -0.4789850207729187  -2.716998719820958  3.3751511442719933 
H  -1.3341555856849152  -2.6118070633244153  3.778574954069687 
C  -0.21637596289800465  -2.1052863432050084  2.158265873995064 
H  -0.8759334230013249  -1.562269263623597  1.7399613819023385 
Br  -1.5839191898578664  1.5839191898578664  0.0 
C  -1.2937473829822488  -1.2398794889499034  -0.4598005675376139 
C  -1.601562203225019  -1.4938654694550033  -1.7919791134336869 
H  -1.1309417375171225  -1.0428217585005106  -2.480879663633267 
C  -2.60218398542082  -2.411889969420291  -2.121542410022959 
H  -2.8231586547736818  -2.5626138747145775  -3.03270050271447 
C  -3.2683208079706407  -3.09759503004543  -1.143064365570095 
H  -3.9596020908062854  -3.707191723557817  -1.3683280760515548 
C  -2.9347449854640226  -2.896087320001541  0.14198826503765638 
H  -3.3668350933519986  -3.405606940434718  0.8171022443470677 
C  -1.9675509241539992  -1.9516175659140573  0.5112421903797603 
H  -1.7755298364628027  -1.8022912010877177  1.4301324877763764 

-Ni 0
lanl2dz
F 1 1.0
3.130 1.0
****
-H 0
6-31g(d,p)
****
-P 0
6-31+g(d)
****
-N 0
6-31+g(d)
****
-C 0
6-31g(d)
****
-Br 0
6-31+g(d)
****

-Ni 0
lanl2dz


