%chk=NEXIBIHI_PN_Pd_gaussain.chk
%nprocshared=32
%mem=64GB
#p opt rwb97xd/gen pseudo=read

This Gaussian input file was generated using the DART python program. This file was generated on the 2023-08-11 at 15:55:49

0 0
Pd  0.0  0.0  0.0 
C  1.2785488713005648  -3.137129892640634  0.07997894200513203 
H  0.7610778067967378  -3.4111404170198707  -0.7053173459847666 
H  0.7709100355368144  -3.339073366948454  0.8926433411324266 
H  2.1281158012009866  -3.6249526198302027  0.09679168886314934 
C  2.578030409695268  -1.011466704541418  1.4605994119864054 
H  1.9860932531584399  -0.9930840935509662  2.254642069734894 
H  3.2513778149975243  -1.7238550253600784  1.5977119647811373 
C  2.8976881753774455  -1.1338350853533186  -1.2693675735679455 
H  3.5760121921089927  -1.8511446163393162  -1.1989872845529708 
H  2.4908677129502412  -1.1821304106358292  -2.1711735742723035 
C  4.21825753140044  0.2644340781664456  0.20906622348987725 
H  4.758661541381082  1.0939278941720525  0.2285216907241068 
H  4.8342310084292395  -0.5022746225334966  0.32011618462484337 
C  2.691384771711242  1.313592785131227  -1.2726652107852898 
H  2.205065265954472  1.2478098566915028  -2.1319874987811294 
H  3.24337738475005  2.135844989911634  -1.2913520212232457 
C  2.3832520794694063  1.4144760091526614  1.209298930592053 
H  2.9227389071406082  2.2448840937997874  1.2288679295944709 
H  1.7714087140319044  1.4349590865545119  1.9882091434601918 
C  1.0769089041379294  2.9183828954219435  -0.30252246616643685 
H  1.8421055568007922  3.531400384226206  -0.30435308728497334 
H  0.44457861349334493  3.1889260575500527  0.3960372026944804 
H  0.6327058128827128  2.9476429805244933  -1.175906162567461 
N  3.5372057410540365  0.15693652875143868  -1.095123941223753 
N  3.2594203754907056  0.28401408197967765  1.3328938668131904 
P  1.5985336022430057  -1.3916861436760801  -1.1878869244701097e-15 
N  1.598533602243006  1.3916861436760801  -1.149212468958057e-16 
Br  -1.654629867976521  1.654629867976521  0.0 
C  -1.352040782177733  -1.3199206589279684  -0.4819701001757076 
C  -1.6380700204479186  -1.599217458033982  -1.8139382277462257 
H  -1.1579680913617836  -1.159339363685303  -2.503515938957912 
C  -2.63068216563725  -2.52632649780156  -2.142289956238523 
H  -2.8368222554424674  -2.694399528648736  -3.0538898079700485 
C  -3.3101544432602585  -3.1961573187854975  -1.1619874135498987 
H  -3.9960123560788676  -3.811990145619169  -1.3868663427944008 
C  -2.9974710358883443  -2.9701089012107795  0.12423560353005347 
H  -3.438659168087169  -3.468581175155742  0.8017084178296768 
C  -2.0389854250767776  -2.015940632791841  0.4912562833419403 
H  -1.8619130127668426  -1.8492165108145995  1.4101568590026907 

-Pd 0
lanl2dz
F 1 1.0
1.472 1.0
****
-P 0
6-31+g(d)
****
-H 0
6-31g(d,p)
****
-N 0
6-31+g(d)
****
-Br 0
6-31+g(d)
****
-C 0
6-31g(d)
****

-Pd 0
lanl2dz
