%chk=SEHUGICU_PN_Ni_gaussain.chk
%nprocshared=32
%mem=64GB
#p opt rwb97xd/gen pseudo=read

This Gaussian input file was generated using the DART python program. This file was generated on the 2023-08-11 at 15:55:49

0 0
Ni  0.0  0.0  0.0 
P  1.3795191399542088  1.4754751582117542  -1.2493321252445512e-17 
N  1.3795191399542088  -1.4754751582117542  2.7755575615628914e-17 
C  2.5446926001918375  -1.4442655341501665  0.5268965998408407 
H  3.0964201108127054  -2.179091724862893  0.38402958661968567 
C  3.086533599369852  -0.3406097077968384  1.341232647530084 
C  2.671435186260038  1.003274212555433  1.2066207756452945 
C  3.3169070405454186  1.9882390131565901  1.9531024478262926 
H  3.056450717183  2.877112511094383  1.863261097188814 
C  4.3496235925921205  1.658323550133837  2.8356025613601634 
H  4.752818515445654  2.3215972247554393  3.3481934086634713 
C  4.773865826386562  0.3437968166911016  2.9487249911850593 
H  5.465943612094332  0.12380704716262203  3.528344711202149 
C  4.1573216996717814  -0.6430721061071409  2.189176915663442 
H  4.461834709540728  -1.5204553800952838  2.245272257238345 
C  1.1155335375675488  -2.5393929417565118  -1.0175634238659461 
H  0.1481303343924374  -2.555130539825017  -1.177552362526081 
C  1.533052272205603  -3.9557274007742795  -0.5987242107720764 
H  1.0920795337492992  -4.198606813555671  0.230230211850382 
H  2.491473529677416  -3.987605250250923  -0.4538489681012875 
C  1.1379988137966266  -4.939586604991167  -1.7084894838261837 
H  1.3950630273400348  -5.838664198820514  -1.4505204733048709 
H  0.17502728076734742  -4.924772617864138  -1.8264749590367557 
C  1.8159119649856852  -4.575705354932908  -3.025194392034915 
H  1.532991385713978  -5.195129524776393  -3.715976690330325 
H  2.7771619558327996  -4.654469368242931  -2.9266084127897 
C  1.4622788325007237  -3.1468338464792014  -3.445326752057454 
H  1.9579487820191097  -2.915754483263607  -4.246785103464688 
H  0.5159264141625606  -3.0980961299546106  -3.6541560251336263 
C  1.790680453162231  -2.14233300364814  -2.338266156471742 
H  1.4884828530086105  -1.2598194806294587  -2.6031625742477282 
H  2.7522946030554056  -2.1051407847926837  -2.2108949447248567 
C  1.0233450817314176  3.203641739538945  0.4255167534104983 
C  0.23948736448301267  3.441860206345252  1.5601166922359087 
H  -0.1504008659308611  2.7303233538560487  2.016215623756806 
C  0.04477038540302347  4.747571650741873  2.0053077658544796 
H  -0.4668332476979724  4.906998746949371  2.765298143157199 
C  0.6142976097988322  5.812175226923916  1.3151907784875259 
H  0.4920192908797234  6.681205713722516  1.6218180697336204 
C  1.364072080497972  5.582261603429812  0.17110970670124023 
H  1.7275862714546781  6.298028313646722  -0.2996677242768835 
C  1.573234795264812  4.27609621713097  -0.2744344352041045 
H  2.0798941363852634  4.121397967059014  -1.0381933654170905 
C  2.2200182266949393  1.4882304051539048  -1.6118482183082568 
C  3.569264292292502  1.1629876809174537  -1.7610166962142544 
H  4.092182635053059  0.9983619780392079  -1.0094604676082866 
C  4.135475184444264  1.0842713064982696  -3.0316900051363866 
H  5.031743280058902  0.8544168503845957  -3.1273865556909195 
C  3.3606374207442644  1.3492678520679555  -4.1553382778536765 
H  3.741222435532716  1.302088647041983  -5.003482569310984 
C  2.017726735029126  1.6843769403153361  -4.01517523291612 
H  1.504837400886072  1.8689604004191849  -4.768525036910544 
C  1.4429707593566843  1.7432133290656653  -2.753722971517499 
H  0.5411925128040732  1.951932464922376  -2.6631641708864495 
Br  -1.5839191898578664  1.5839191898578664  0.0 
C  -1.2937473829822488  -1.2398794889499034  -0.4598005675376139 
C  -1.601562203225019  -1.4938654694550033  -1.7919791134336869 
H  -1.1309417375171225  -1.0428217585005106  -2.480879663633267 
C  -2.60218398542082  -2.411889969420291  -2.121542410022959 
H  -2.8231586547736818  -2.5626138747145775  -3.03270050271447 
C  -3.2683208079706407  -3.09759503004543  -1.143064365570095 
H  -3.9596020908062854  -3.707191723557817  -1.3683280760515548 
C  -2.9347449854640226  -2.896087320001541  0.14198826503765638 
H  -3.3668350933519986  -3.405606940434718  0.8171022443470677 
C  -1.9675509241539992  -1.9516175659140573  0.5112421903797603 
H  -1.7755298364628027  -1.8022912010877177  1.4301324877763764 

-Ni 0
lanl2dz
F 1 1.0
3.130 1.0
****
-P 0
6-31+g(d)
****
-H 0
6-31g(d,p)
****
-N 0
6-31+g(d)
****
-Br 0
6-31+g(d)
****
-C 0
6-31g(d)
****

-Ni 0
lanl2dz
