%chk=KEGIJACI_PN_Ni_gaussain.chk
%nprocshared=32
%mem=64GB
#p opt rwb97xd/gen pseudo=read

This Gaussian input file was generated using the DART python program. This file was generated on the 2023-08-11 at 15:55:49

0 0
Ni  0.0  0.0  0.0 
P  1.3436185312431497  1.508240445850727  2.7299143044243463e-15 
N  1.3436185312431501  -1.5082404458507275  0.0 
H  0.9967571717849236  -2.310127869256756  0.288951808262269 
H  1.4025579333351355  -1.5719537949154365  -0.9157851746081158 
C  1.132095141290205  3.031314725100864  0.9401903399788333 
H  1.0059837367278026  2.815683652552244  1.8869321971874635 
H  0.34587912020022626  3.5139221349488547  0.6068992417759593 
H  1.9284151856121228  3.5928733925733205  0.8356701983902199 
C  1.5586938951768188  2.0601112614689283  -1.7072889886301512 
H  1.6827411098863365  1.2818319968932477  -2.290088555251772 
H  2.3466022744186272  2.640100723630969  -1.7660428795782481 
H  0.7644560537679055  2.5592995156171767  -1.9919284064811396 
C  3.0174690551136063  1.0154243852253624  0.5120113906236344 
H  3.6499993078598925  1.726323103629124  0.2384780443335957 
H  3.040377379574555  0.9630161666170778  1.500230474274987 
C  3.5082554207751637  -0.3035659624163891  -0.04802900623058781 
H  3.431071809019513  -0.28464099585782443  -1.0343812687195704 
H  4.466389284666198  -0.41453281485721316  0.1784306292999251 
C  2.7376283042822895  -1.4868817559358514  0.4825364846688087 
H  3.1908365564619383  -2.3211825953422878  0.20277363952672584 
H  2.738101930008514  -1.457164246288562  1.472275124562719 
Br  -1.5839191898578664  1.5839191898578664  0.0 
C  -1.2937473829822488  -1.2398794889499034  -0.4598005675376139 
C  -1.601562203225019  -1.4938654694550033  -1.7919791134336869 
H  -1.1309417375171225  -1.0428217585005106  -2.480879663633267 
C  -2.60218398542082  -2.411889969420291  -2.121542410022959 
H  -2.8231586547736818  -2.5626138747145775  -3.03270050271447 
C  -3.2683208079706407  -3.09759503004543  -1.143064365570095 
H  -3.9596020908062854  -3.707191723557817  -1.3683280760515548 
C  -2.9347449854640226  -2.896087320001541  0.14198826503765638 
H  -3.3668350933519986  -3.405606940434718  0.8171022443470677 
C  -1.9675509241539992  -1.9516175659140573  0.5112421903797603 
H  -1.7755298364628027  -1.8022912010877177  1.4301324877763764 

-Ni 0
lanl2dz
F 1 1.0
3.130 1.0
****
-P 0
6-31+g(d)
****
-H 0
6-31g(d,p)
****
-N 0
6-31+g(d)
****
-Br 0
6-31+g(d)
****
-C 0
6-31g(d)
****

-Ni 0
lanl2dz
