%chk=OCURAXOP_PN_Ni_gaussain.chk
%nprocshared=32
%mem=64GB
#p opt rwb97xd/gen pseudo=read

This Gaussian input file was generated using the DART python program. This file was generated on the 2023-10-04 at 16:41:16

0 1
Ni  0.0  0.0  0.0 
P  1.5899842475634782  1.2458130246951187  0.0 
N  3.7371855678066304  -0.8990548784590728  0.2884535809537779 
N  1.5899842475634782  -1.2458130246951187  0.0 
C  6.335011151718157  -1.169739478246851  -2.7532661321382843 
H  5.8551795692045  -1.8892210515105095  -3.2349580753514697 
H  6.904229155423736  -0.6934225685362472  -3.409098058611204 
C  5.28764943041345  -0.16546518892788709  -2.1630330370321427 
H  5.2352556748163215  0.6265696392851805  -2.7536965920886 
H  4.397739369695213  -0.5971021475570506  -2.156530746830639 
C  5.629042890906114  0.29373747123052896  -0.7434647780053691 
C  5.0286619387106875  -0.2541474091406968  0.38958937785019093 
C  5.680820228644046  -0.3369039327572574  1.6084505769496598 
H  5.254268207970801  -0.7442056826520129  2.352803207221252 
C  6.980766526894849  0.18789162407198723  1.735157819032929 
C  7.408781534599383  1.0291743400369218  0.7074528978622859 
H  8.160132225940309  1.5929529617702165  0.8497672130172891 
C  6.764678560970065  1.0604378837854165  -0.511286221143174 
H  7.102816416199524  1.6148409292737453  -1.204458345520719 
C  7.935275097168285  -0.3463787775100553  2.76379823592697 
H  7.434148079555091  -0.557891941826576  3.5907432362377074 
H  8.599291589832392  0.3546689621487402  2.983033530050247 
C  8.69784893381006  -1.6422668786920862  2.280071833004525 
H  9.671450238897512  -1.503158716741049  2.393745699880778 
H  8.432230330174574  -2.404578771548092  2.854784009152769 
C  8.417597876089614  -1.9972329660856774  0.8329835179915435 
C  7.326773430918676  -2.8164209740532096  0.476040276817694 
H  6.982865457326848  -3.445065533449803  1.0997772274956568 
C  6.749324784035916  -2.707143400050227  -0.7924759635329504 
H  6.02014410921632  -3.2675639335976765  -1.031599904300198 
C  7.227462393395105  -1.7983960338256197  -1.6890172625795234 
C  8.472955183420401  -1.2067581031013204  -1.4417887672086882 
H  8.90659761830213  -0.7138579866088983  -2.1274959742814716 
C  9.073404269596574  -1.3371613672988174  -0.1990797933950773 
H  9.93812706278072  -0.9723452263604722  -0.052417172871901535 
C  2.5481650804547025  -0.3058281659828055  0.022704115738892975 
C  2.1557520829757437  -2.4603711766861016  0.2509226610833931 
H  1.7081124841644548  -3.2970014127964316  0.28962392207117194 
C  3.48677192635005  -2.2397635698044356  0.4357784706481432 
H  4.1361006380299905  -2.9052893859299393  0.6342906925855838 
C  1.9103728221069243  2.135390873081489  1.5976636607754282 
C  0.8373455360821729  3.2197664360441625  1.7671689760187856 
H  0.9464725188609604  3.8998358792154937  1.0705753325692988 
H  0.9311088294849683  3.6375335565375213  2.648974809433908 
H  -0.051757613767527744  2.8151550296709162  1.6900892201809954 
C  1.7418139561137864  1.066799749364675  2.6935324161511436 
H  1.8530516943609086  1.4821239149846523  3.5742962568268175 
H  2.4182770592179197  0.36719291613759686  2.5743906139123554 
H  0.8478313777872307  0.6712832711832197  2.6289059112513984 
C  3.3134659696444184  2.7365062372295474  1.7117874020323742 
H  3.42064056638189  3.1513196480352894  2.5925479881338784 
H  3.4359522705000867  3.4141302371926203  1.0146474729100028 
H  3.982177749065765  2.028967820527157  1.6005788818847915 
C  1.8533532760238653  2.193651774646363  -1.5728130050768103 
C  3.231606809277497  2.872347857637566  -1.6669677447678588 
H  3.310909254802801  3.3326552541992127  -2.5276877415172883 
H  3.9350218623443443  2.193780112524384  -1.5941957143511074 
H  3.3271082186377448  3.5210258165132737  -0.9391093818434184 
C  0.7402038805635679  3.254014019071673  -1.6501214391815553 
H  -0.13246361344068114  2.818153553466984  -1.5642883486441008 
H  0.7905431345387834  3.717839580007202  -2.5124925127525763 
H  0.8555949490512  3.901536555768076  -0.9236033968842181 
C  1.697221513135212  1.1851199242850436  -2.688797825504072 
H  1.7405876726236986  1.6450875266788583  -3.5532765302500557 
H  0.8317210008891158  0.7343941340827638  -2.602327163726295 
H  2.4179337666766476  0.5229971669781281  -2.634562764413327 
Br  -1.5839191898578664  1.5839191898578664  0.0 
C  -1.2937473829822488  -1.2398794889499034  -0.4598005675376139 
C  -1.601562203225019  -1.4938654694550033  -1.7919791134336869 
H  -1.1309417375171225  -1.0428217585005106  -2.480879663633267 
C  -2.60218398542082  -2.411889969420291  -2.121542410022959 
H  -2.8231586547736818  -2.5626138747145775  -3.03270050271447 
C  -3.2683208079706407  -3.09759503004543  -1.143064365570095 
H  -3.9596020908062854  -3.707191723557817  -1.3683280760515548 
C  -2.9347449854640226  -2.896087320001541  0.14198826503765638 
H  -3.3668350933519986  -3.405606940434718  0.8171022443470677 
C  -1.9675509241539992  -1.9516175659140573  0.5112421903797603 
H  -1.7755298364628027  -1.8022912010877177  1.4301324877763764 

-Ni 0
lanl2dz
F 1 1.0
3.130 1.0
****
-H 0
6-31g(d,p)
****
-P 0
6-31+g(d)
****
-N 0
6-31+g(d)
****
-C 0
6-31g(d)
****
-Br 0
6-31+g(d)
****

-Ni 0
lanl2dz


