%chk=CIBOYOGE_PN_Ni_gaussain.chk
%nprocshared=32
%mem=64GB
#p opt rwb97xd/gen pseudo=read

This Gaussian input file was generated using the DART python program. This file was generated on the 2023-10-04 at 16:41:16

0 1
Ni  0.0  0.0  0.0 
C  2.93945743708908  1.0189966883176338  -0.4552792317871771 
H  3.5697080328735065  1.7813923968020808  -0.30630732101912306 
H  2.8445852681329864  0.8029923386616293  -1.378156901084289 
C  3.4239045819299982  -0.21717505178815985  0.30068024650468417 
H  3.9589687992283293  -0.7512810554380758  -0.3077001938712812 
H  4.009660297677838  0.07756466876402003  1.0151124676408771 
C  2.3638115856638118  -1.1205847283103667  0.9077077216929572 
H  2.8053416434501885  -1.9091268299944724  1.2622020826393325 
H  1.9618192602517461  -0.6536976597570217  1.6563802372346215 
N  1.2692782781959202  -1.5713155801747785  -2.883947035578143e-16 
C  1.8389091576596317  -2.2792438054369937  -1.1612869796215475 
H  2.368820587348078  -1.6697121288698544  -1.680305150735818 
H  1.1275342785717872  -2.627159689997365  -1.704284252794571 
H  2.392282712258633  -3.002893627501077  -0.8555182204307257 
C  0.46662544732376054  -2.529236709444416  0.8038044371560293 
H  -0.27254025831613427  -2.8456329453582105  0.2795915114231001 
H  0.13544519148826195  -2.0902278854351284  1.5903413724532451 
H  1.0184139896251936  -3.271596649559216  1.0607361282679275 
P  1.26927827819592  1.5713155801747785  -4.144752644961722e-16 
C  1.0778471735387967  3.0810869844245374  -0.9944217058569718 
C  0.9119823664231395  4.348580968528272  -0.4302900580819703 
H  0.877370563975995  4.448918591338875  0.49392904720643255 
C  0.8004628132157918  5.455275468309516  -1.2558040878878793 
H  0.6746085221553001  6.2978865241056585  -0.8836734709376353 
C  0.8730458961487035  5.316760177208162  -2.6201662466283984 
H  0.8140503359008799  6.067477763721746  -3.1650102969494824 
C  1.0320444282632573  4.064760843133477  -3.1880529028037103 
H  1.074540583775509  3.9709837770500305  -4.1123499322501464 
C  1.126922629940787  2.9600690759921338  -2.3766198701654155 
H  1.2245351741266857  2.1190754578590965  -2.7593583911912716 
C  1.3193438045564496  2.0304940094497845  1.7465754244116771 
C  2.4403951396246066  2.6456946427258052  2.295354956609003 
H  3.1599555034961364  2.8781263958427536  1.7530284286868838 
C  2.4766556709328436  2.9074221882225895  3.6537172815420544 
H  3.2257079997430105  3.3126370145970445  4.026745113198668 
C  1.412030104570027  2.5716625059178306  4.455082503638272 
H  1.4367959887316841  2.7634910404293214  5.365646814562496 
C  0.3180517583534923  1.9595762661231355  3.9177905224368224 
H  -0.39881960039110087  1.7284924631103686  4.464408003859518 
C  0.27014990779754444  1.6814006529523038  2.5742791488525096 
H  -0.474628776615293  1.2557081673437807  2.218191843629845 
Br  -1.5839191898578664  1.5839191898578664  0.0 
C  -1.2937473829822488  -1.2398794889499034  -0.4598005675376139 
C  -1.601562203225019  -1.4938654694550033  -1.7919791134336869 
H  -1.1309417375171225  -1.0428217585005106  -2.480879663633267 
C  -2.60218398542082  -2.411889969420291  -2.121542410022959 
H  -2.8231586547736818  -2.5626138747145775  -3.03270050271447 
C  -3.2683208079706407  -3.09759503004543  -1.143064365570095 
H  -3.9596020908062854  -3.707191723557817  -1.3683280760515548 
C  -2.9347449854640226  -2.896087320001541  0.14198826503765638 
H  -3.3668350933519986  -3.405606940434718  0.8171022443470677 
C  -1.9675509241539992  -1.9516175659140573  0.5112421903797603 
H  -1.7755298364628027  -1.8022912010877177  1.4301324877763764 

-Ni 0
lanl2dz
F 1 1.0
3.130 1.0
****
-H 0
6-31g(d,p)
****
-P 0
6-31+g(d)
****
-N 0
6-31+g(d)
****
-C 0
6-31g(d)
****
-Br 0
6-31+g(d)
****

-Ni 0
lanl2dz


