%chk=IKUFIPUM_PN_Ni_gaussain.chk
%nprocshared=32
%mem=64GB
#p opt rwb97xd/gen pseudo=read

This Gaussian input file was generated using the DART python program. This file was generated on the 2023-08-11 at 15:55:49

0 0
Ni  0.0  0.0  0.0 
P  1.3190811404155547  1.5297466930835313  -4.1804873022904694e-16 
N  1.3190811404155545  -1.5297466930835313  4.996003610813204e-16 
C  2.689605408846852  0.9934474164063554  1.092544102302719 
C  3.556775773687738  1.9902563011023626  1.5179214239042143 
C  4.535559172635331  1.7772085615821283  2.4892134544645197 
C  4.584423658294383  0.5646799590452396  3.1042327956817117 
C  3.7074812187819486  -0.4884346201748577  2.7501113181968475 
C  3.7307634473696925  -1.6856627908782764  3.4972175054996475 
C  2.921140068096689  -2.723684198069051  3.1807661791503015 
C  2.105792559713924  -2.6358358761164027  2.039775752852091 
C  2.0497147658152115  -1.506930971266446  1.2679545450343863 
C  2.7973771299317347  -0.32250164176237384  1.6574516986751244 
C  2.295595143296162  -1.3693411330588292  -1.1132618912418129 
C  0.6463774184259036  -2.8197262785417667  -0.2696098505661101 
C  1.995591934287825  1.721242534404499  -1.685330391505226 
C  3.2786910482970133  2.230106994461544  -1.9242722357261903 
C  3.7899762914378594  2.285426676068058  -3.202109730470106 
C  3.029287118521424  1.8417341333295862  -4.276243776912178 
C  1.7477259886797571  1.376799593372282  -4.07178115432877 
C  1.2312512686161194  1.313879065133726  -2.775266495460056 
C  0.9698835031744195  3.2372685637370324  0.5301955218456516 
C  0.6584174778640122  3.4989043965252957  1.8714830920849919 
C  0.2507494310524012  4.7618831653210405  2.262448977016148 
C  0.13699548949092732  5.778510971762115  1.3344696917139043 
C  0.42480805789003406  5.532940396778374  -0.0035191715333569573 
C  0.8418594777298445  4.256723681405226  -0.4039765832662074 
H  3.481086862367895  2.880965881427371  1.1151049741153933 
H  5.170113377631607  2.485437619960516  2.7246445309816627 
H  5.244594292505231  0.41504193986535554  3.8135746716072783 
H  4.341922109970323  -1.764080963339361  4.2595232377069525 
H  2.9024798524148276  -3.525304626826558  3.743374572750454 
H  1.563107354091247  -3.410918878655867  1.7839928433904069 
H  2.8705148739462665  -0.5824935847410551  -1.010836801466267 
H  2.849500018700131  -2.1766985704594553  -1.1524104196639444 
H  1.776516001725057  -1.2890466074649165  -1.940825045294408 
H  -0.0004353013040159226  -3.0535169032360425  0.42777244731695413 
H  0.17779349028210634  -2.6966271694857316  -1.1216705770609758 
H  1.3033814736037654  -3.541486217616667  -0.3598826140468516 
H  3.8180559312751234  2.550590213818456  -1.1707683677064815 
H  4.690686894058022  2.6395900564823176  -3.3525009546195697 
H  3.4035936320746805  1.8559556904660472  -5.181158944883331 
H  1.1986642044626066  1.0948134959678235  -4.833470479436394 
H  0.3230341811580111  0.9768744732422183  -2.6300180975578344 
H  0.7300627073431251  2.782774579116251  2.536742992958769 
H  0.042911871246493316  4.936120224440112  3.2042028121362773 
H  -0.15043330247103315  6.6708153618755865  1.6171123723824858 
H  0.34087096828198615  6.2508326759153565  -0.6639042490022882 
H  1.0475847772330529  4.083876293536703  -1.346463337364832 
Br  -1.5839191898578664  1.5839191898578664  0.0 
C  -1.2937473829822488  -1.2398794889499034  -0.4598005675376139 
C  -1.601562203225019  -1.4938654694550033  -1.7919791134336869 
H  -1.1309417375171225  -1.0428217585005106  -2.480879663633267 
C  -2.60218398542082  -2.411889969420291  -2.121542410022959 
H  -2.8231586547736818  -2.5626138747145775  -3.03270050271447 
C  -3.2683208079706407  -3.09759503004543  -1.143064365570095 
H  -3.9596020908062854  -3.707191723557817  -1.3683280760515548 
C  -2.9347449854640226  -2.896087320001541  0.14198826503765638 
H  -3.3668350933519986  -3.405606940434718  0.8171022443470677 
C  -1.9675509241539992  -1.9516175659140573  0.5112421903797603 
H  -1.7755298364628027  -1.8022912010877177  1.4301324877763764 

-Ni 0
lanl2dz
F 1 1.0
3.130 1.0
****
-P 0
6-31+g(d)
****
-H 0
6-31g(d,p)
****
-N 0
6-31+g(d)
****
-Br 0
6-31+g(d)
****
-C 0
6-31g(d)
****

-Ni 0
lanl2dz
