%chk=OTOPAPOT_PN_Ni_gaussain.chk
%nprocshared=32
%mem=64GB
#p opt rwb97xd/gen pseudo=read

This Gaussian input file was generated using the DART python program. This file was generated on the 2023-10-04 at 16:41:16

0 1
Ni  0.0  0.0  0.0 
N  1.379458209769327  -1.4755321235066357  2.277316894996068e-15 
N  0.9593156991015676  -2.646783984084804  0.542443766506709 
H  0.08266777391816738  -2.7378648781290558  0.7134759155657381 
C  2.0103351275561403  -3.364242813435215  0.9725571111011198 
H  1.9711242540211542  -4.211348416957767  1.4008531581028603 
C  3.135257893156071  -2.6638941774840497  0.6882900191675515 
H  4.0303352215924235  -2.926332547229416  0.8634137702826874 
C  2.710976330684323  -1.4754446330359487  0.08387953278627976 
C  3.5372778428835243  -0.3579920891485929  -0.354471779629917 
C  4.884016550169161  -0.6283054314647932  -0.6495883858459964 
H  5.185746653867747  -1.5290711442717397  -0.6500413245160728 
C  5.776854741576916  0.3762490823857044  -0.9387282873925886 
H  6.680844207581513  0.1650834797965047  -1.13334656411865 
C  5.356880851918674  1.6927601695069228  -0.9446299390494919 
H  5.976752061411483  2.391423094953807  -1.1206222691322907 
C  4.016517642022044  1.986805787415186  -0.691153963571496 
H  3.726200235776634  2.891480839034959  -0.7134060333112227 
C  3.096423637843948  0.9785153196588534  -0.40607648970302845 
P  1.3794582097693284  1.4755321235066352  4.134403571588152e-17 
C  1.2208402836180374  3.0911292304911244  -0.8067604114028062 
C  1.2782551842879895  3.1067527398900343  -2.1961927757642843 
H  1.343730587412107  2.291209482085393  -2.678324019550805 
C  1.2393942777836222  4.320378943936517  -2.8821313785542073 
H  1.2770729986117175  4.332354965819388  -3.831742382543028 
C  1.1445320529374228  5.506760176925056  -2.175647062868567 
H  1.1329508164985047  6.334739094182773  -2.641421522815948 
C  1.0661203560719175  5.4922620411954455  -0.8049004707316125 
H  0.9909050374054509  6.310561053981777  -0.32860959163479597 
C  1.0964624253768864  4.285335067780764  -0.10482504645621532 
H  1.032621960441549  4.279936164650774  0.8428456858563639 
C  1.3821493959965947  1.7061325046026223  1.7988202416459407 
C  2.260803993402668  2.607663029630205  2.408851610430085 
H  2.8606320120423545  3.121712875049642  1.8810645658002991 
C  2.2502085484153627  2.7468551805349954  3.790580086532423 
H  2.84268509636482  3.3613699346056287  4.205448110317587 
C  1.3846482266603712  2.001176667358895  4.567709151997694 
H  1.3764146447460563  2.1157434004763402  5.511491352397588 
C  0.5312043983828613  1.0873502629594123  3.973650211658134 
H  -0.05430854629375337  0.5644055789994159  4.509085818556043 
C  0.5330960851161127  0.9355001836351374  2.590557389418577 
H  -0.049515708282561244  0.30268630237516564  2.18460836567609 
Br  -1.5839191898578664  1.5839191898578664  0.0 
C  -1.2937473829822488  -1.2398794889499034  -0.4598005675376139 
C  -1.601562203225019  -1.4938654694550033  -1.7919791134336869 
H  -1.1309417375171225  -1.0428217585005106  -2.480879663633267 
C  -2.60218398542082  -2.411889969420291  -2.121542410022959 
H  -2.8231586547736818  -2.5626138747145775  -3.03270050271447 
C  -3.2683208079706407  -3.09759503004543  -1.143064365570095 
H  -3.9596020908062854  -3.707191723557817  -1.3683280760515548 
C  -2.9347449854640226  -2.896087320001541  0.14198826503765638 
H  -3.3668350933519986  -3.405606940434718  0.8171022443470677 
C  -1.9675509241539992  -1.9516175659140573  0.5112421903797603 
H  -1.7755298364628027  -1.8022912010877177  1.4301324877763764 

-Ni 0
lanl2dz
F 1 1.0
3.130 1.0
****
-H 0
6-31g(d,p)
****
-P 0
6-31+g(d)
****
-N 0
6-31+g(d)
****
-C 0
6-31g(d)
****
-Br 0
6-31+g(d)
****

-Ni 0
lanl2dz


