%chk=UDATAVAY_PN_Pd_gaussain.chk
%nprocshared=32
%mem=64GB
#p opt rwb97xd/gen pseudo=read

This Gaussian input file was generated using the DART python program. This file was generated on the 2023-08-11 at 15:55:49

0 0
Pd  0.0  0.0  0.0 
P  1.425153796963682  1.5687691528711292  4.191955967700283e-17 
N  1.425153796963682  -1.5687691528711292  -5.551115123125783e-17 
C  2.7033786708641907  -1.477928942417484  0.19178276227751395 
H  3.168568734160907  -2.299706797776617  0.295446215101303 
C  3.512912540300023  -0.27324353568240656  0.26792076222369693 
C  3.130144552384447  1.0215183203131502  0.23581914721749275 
C  4.350952536635219  1.9212830291083605  0.28505992702739297 
H  4.537399706775478  2.3127984530800196  -0.6048763322288528 
H  4.2232074442262055  2.6543211137082214  0.938099748088548 
C  5.465173026992959  1.0107700818172947  0.7135443277729576 
H  5.628414103537441  1.0995843664078628  1.685975139595201 
H  6.29975247332214  1.2364872654780887  0.2313369442074113 
C  5.0237898034930435  -0.4148467407132024  0.37559981260682646 
H  5.417880395485654  -0.7196956976962876  -0.47977348527501934 
H  5.274954362361102  -1.0483817564808446  1.0936532285620215 
C  0.9819313450847348  2.595318117741227  1.471248381774671 
H  0.03132866359048836  2.8774423481864697  1.3414660619786154 
C  0.9992682166976272  1.695890918769583  2.7129903020756423 
H  0.4197121638125614  0.9081883541580829  2.5567601472758863 
H  1.9206647381521331  1.3714885080843664  2.8719274789512523 
C  0.5051751806088383  2.454699292724006  3.948792172645994 
H  -0.45276340028593687  2.677261082239689  3.8353009611761943 
H  0.5913204317647024  1.8737499648180997  4.745689634123286 
C  1.2951560512854556  3.732744861972081  4.170790814286892 
H  2.233344731326505  3.505022676495536  4.389454178581423 
H  0.9126979977112508  4.225949453982285  4.939137284101307 
C  1.265821645787983  4.622001048866647  2.933544413312598 
H  1.822090442377431  5.425160451060414  3.093827945244821 
H  0.33703026315190954  4.921927382284711  2.7671361140502517 
C  1.7870225303802507  3.8831604311258583  1.7030588630208854 
H  2.7425683978211315  3.6584408225366647  1.831099257944526 
H  1.7123443945894903  4.468597353645105  0.9082124402535567 
C  1.6118651223150804  2.7217379256760235  -1.4262123614393265 
H  2.3200221742118337  3.3838218614157536  -1.1809721895989427 
C  2.09376675034469  1.9860389365113567  -2.6843567006327893 
H  2.9378239260669363  1.5083264900188786  -2.4856287142343345 
H  1.4175493193495283  1.3157317003731013  -2.95541426868616 
C  2.3229649513063713  2.97573560868167  -3.831287597317911 
H  3.0660989647840498  3.5855841407292615  -3.5946447948244 
H  2.583821921151926  2.4782009404537084  -4.646515053427091 
C  1.0653989715246859  3.7980588502108694  -4.120408995586298 
H  1.2651799914321644  4.4665914689716075  -4.822714307923944 
H  0.35394774137349283  3.2000230504356355  -4.461350602468699 
C  0.5675836616474901  4.513098811920358  -2.8702833417377036 
H  -0.2773201225976951  4.986487339888823  -3.075060872136054 
H  1.2357827217927957  5.186420953082305  -2.58685257375011 
C  0.3314759162858485  3.5165341694178367  -1.7304643491366511 
H  -0.39319898446286516  2.891167028430592  -1.9834069655505195 
H  0.04539539554764804  4.005363324807915  -0.9184410351272576 
C  0.9246550589235945  -2.9436438475019853  0.030012618746057762 
C  0.7002931508900805  -3.5227904276965245  1.2783942041888114 
C  0.1631619153787427  -4.816037787441532  1.3110389947476944 
H  0.0016503156467300162  -5.2375264900909  2.146860654368317 
C  -0.1331973017791701  -5.481703987015118  0.14286279008041675 
H  -0.4961748037789031  -6.358605739884434  0.18169407716644875 
C  0.09073152023393649  -4.891941115717762  -1.079051895284711 
H  -0.12573755477651516  -5.362774181658775  -1.8751832434809175 
C  0.6375388065182319  -3.5973433947700735  -1.1619815798582098 
C  0.993203882840585  -2.7749596950148665  2.553668856318717 
H  0.689347120625113  -3.30470424887675  3.320265481480632 
H  0.522634495444587  -1.9153542058758433  2.5437580194309746 
H  1.9578362483939031  -2.618484575937762  2.6266525972260686 
C  0.9076450416576539  -2.9564207496760972  -2.491678750173542 
H  0.44210808273952285  -3.4544131525546207  -3.195188612617952 
H  1.8718666846471037  -2.9652106853876483  -2.6685038621370936 
H  0.5867641264395188  -2.0304261714799687  -2.479270309491843 
Br  -1.654629867976521  1.654629867976521  0.0 
C  -1.352040782177733  -1.3199206589279684  -0.4819701001757076 
C  -1.6380700204479186  -1.599217458033982  -1.8139382277462257 
H  -1.1579680913617836  -1.159339363685303  -2.503515938957912 
C  -2.63068216563725  -2.52632649780156  -2.142289956238523 
H  -2.8368222554424674  -2.694399528648736  -3.0538898079700485 
C  -3.3101544432602585  -3.1961573187854975  -1.1619874135498987 
H  -3.9960123560788676  -3.811990145619169  -1.3868663427944008 
C  -2.9974710358883443  -2.9701089012107795  0.12423560353005347 
H  -3.438659168087169  -3.468581175155742  0.8017084178296768 
C  -2.0389854250767776  -2.015940632791841  0.4912562833419403 
H  -1.8619130127668426  -1.8492165108145995  1.4101568590026907 

-Pd 0
lanl2dz
F 1 1.0
1.472 1.0
****
-P 0
6-31+g(d)
****
-H 0
6-31g(d,p)
****
-N 0
6-31+g(d)
****
-Br 0
6-31+g(d)
****
-C 0
6-31g(d)
****

-Pd 0
lanl2dz
