%chk=IYATOCIP_PN_Ni_gaussain.chk
%nprocshared=32
%mem=64GB
#p opt rwb97xd/gen pseudo=read

This Gaussian input file was generated using the DART python program. This file was generated on the 2023-08-11 at 15:55:49

0 0
Ni  0.0  0.0  0.0 
P  1.4934261263952764  -1.3600655884919666  1.6655999695771482e-16 
N  1.4934261263952764  1.360065588491967  -1.6655999695771487e-16 
C  1.2668367598820243  -1.7279263550853958  -1.7593703604939135 
C  0.432235883893755  -2.7915698126071855  -2.1073328772550273 
C  0.13026255470284176  -3.035717111685741  -3.4382645301997075 
C  0.6662796323795723  -2.2331773524008534  -4.432500059239935 
C  1.4741476392051798  -1.167600227104326  -4.0835656189901 
C  1.773009649882101  -0.9006923455495076  -2.7678778363691197 
C  1.7067836946082036  -2.9530598884229633  0.8177718804615612 
C  2.4100282032053433  -3.964583719803338  0.16711827086767692 
C  2.7317568364376053  -5.129124579745371  0.8490285230885861 
C  2.3546521628444994  -5.280639721179462  2.167938973828326 
C  1.6249906721157812  -4.300065154567023  2.8059618247203564 
C  1.3042818545744181  -3.128047695638853  2.1393874925421787 
C  3.0988609381189987  -0.4525522005761952  0.2865239711775113 
C  4.299660078207703  -1.0857119851383705  -0.415139311583855 
C  3.3506502407558303  -0.4596253778416144  1.822660998672485 
C  2.7870062281417605  0.9636181049571066  -0.12394459715718494 
C  3.782279782201703  1.8236252324787434  -0.5649467663138561 
C  3.4488137231646725  3.118043442818162  -0.9125145643216814 
C  2.1485274868700923  3.5244697429004264  -0.837534658317775 
C  1.1963000562631467  2.6331726905692197  -0.3829504473013544 
H  0.05747737112935658  -3.3522784000846215  -1.4285820856977136 
H  -0.44704135866865924  -3.755984687962108  -3.6766287476714634 
H  0.48216633789645336  -2.4214430670594473  -5.349818425718393 
H  1.8171003649926032  -0.6140057818284651  -4.787414635494871 
H  2.3306456072055113  -0.12493263665938512  -2.532460604283763 
H  2.6538601080402295  -3.858651273442608  -0.7696959524405778 
H  3.208719618593788  -5.851299600796425  0.39553625919894914 
H  2.628138785025858  -6.0877563038563  2.63484549493923 
H  1.3368109768102197  -4.4248746280485305  3.7196859781402383 
H  0.78760965386313  -2.4432032088132085  2.6024156513799377 
H  4.150079208284629  -1.0968438600480126  -1.3605228605808057 
H  5.085619266677593  -0.5941043702869708  -0.2332028196975854 
H  4.4175011253259875  -1.9892611377660623  -0.11981444571602881 
H  2.6082829724520824  -0.06418358845236954  2.2767810050098847 
H  3.466321086494309  -1.349052571820756  2.14072131065204 
H  4.1353626086321515  0.046254839128570896  2.0269659564687363 
H  4.695212611844699  1.5065858016979778  -0.6003581753551577 
H  4.1344386993307385  3.732899415262273  -1.2219673154923456 
H  1.898857207196405  4.412493574412237  -1.1079736276153824 
H  0.27732524596734476  2.9210200071343575  -0.2996254187201684 
Br  -1.5839191898578664  1.5839191898578664  0.0 
C  -1.2937473829822488  -1.2398794889499034  -0.4598005675376139 
C  -1.601562203225019  -1.4938654694550033  -1.7919791134336869 
H  -1.1309417375171225  -1.0428217585005106  -2.480879663633267 
C  -2.60218398542082  -2.411889969420291  -2.121542410022959 
H  -2.8231586547736818  -2.5626138747145775  -3.03270050271447 
C  -3.2683208079706407  -3.09759503004543  -1.143064365570095 
H  -3.9596020908062854  -3.707191723557817  -1.3683280760515548 
C  -2.9347449854640226  -2.896087320001541  0.14198826503765638 
H  -3.3668350933519986  -3.405606940434718  0.8171022443470677 
C  -1.9675509241539992  -1.9516175659140573  0.5112421903797603 
H  -1.7755298364628027  -1.8022912010877177  1.4301324877763764 

-Ni 0
lanl2dz
F 1 1.0
3.130 1.0
****
-P 0
6-31+g(d)
****
-H 0
6-31g(d,p)
****
-N 0
6-31+g(d)
****
-Br 0
6-31+g(d)
****
-C 0
6-31g(d)
****

-Ni 0
lanl2dz
