%chk=YAVUHIMO_PN_Pd_gaussain.chk
%nprocshared=32
%mem=64GB
#p opt rwb97xd/gen pseudo=read

This Gaussian input file was generated using the DART python program. This file was generated on the 2023-10-04 at 09:55:46

0 1
Pd  0.0  0.0  0.0 
P  1.2941505814626053  -1.6784737926163757  2.0555375575803629e-16 
N  2.55902119013057  0.3517457764888314  1.4449991745846347 
H  2.7658361159558895  0.20165493437487397  2.286172328916966 
N  1.2941505814626053  1.6784737926163757  -2.0555375575803629e-16 
C  2.7973845219816074  -0.7013795763024265  0.48198367453430957 
H  3.470530302403164  -1.323113421412579  0.8562070759206954 
H  3.1863651782016884  -0.29882245984798367  -0.33485771587052243 
C  2.026654877109687  1.5711523284431368  1.1144172334392157 
C  2.265442287747591  2.6762755082984397  1.9518301661476625 
H  2.7726273857957784  2.578412678552404  2.7493368074190587 
C  1.7522262782720162  3.8938963099996355  1.5968650962006363 
H  1.897441148813166  4.651408471102887  2.15313461464866 
C  1.0197081569050466  4.022215963215232  0.4245282126779457 
H  0.67094849724236  4.86366298563103  0.15377511803347102 
C  0.8163761085307677  2.901839429323288  -0.3244904188715019 
H  0.30967161995832704  2.9850655277077314  -1.1232560714932638 
C  1.9512538877165588  -2.7669554823734277  -1.2891272497212207 
C  1.474740791025353  -2.6366164529751885  -2.590056004917804 
H  0.8107933541484327  -1.988798983448264  -2.792953065616834 
C  1.9785840044009444  -3.463816648836293  -3.5963385359709474 
H  1.665437537565729  -3.3698129707961093  -4.488973651134797 
C  2.925082915450786  -4.410752503296352  -3.2997390940977698 
H  3.2508455150476996  -4.984389562293353  -3.9832467335935733 
C  3.404689697767219  -4.535332848798231  -2.017127453003414 
H  4.064850424538259  -5.19055343063746  -1.8223657936261002 
C  2.9333355453035717  -3.7166778801924414  -1.0061279300894008 
H  3.2757933184091526  -3.800283284469417  -0.12435804513342838 
C  0.8984305958583345  -2.8073096840880796  1.3688366824127272 
C  0.1590896347539219  -3.9575398178517798  1.08664319805286 
H  -0.028447405782520363  -4.1846866649918235  0.18306540490984774 
C  -0.30148945016922024  -4.767706503791094  2.099734515519111 
H  -0.8036944403718858  -5.54581446755273  1.890747328002136 
C  -0.03672630624729267  -4.453402201084253  3.4080865258437667 
H  -0.37201357838577986  -5.002902037815273  4.1078731108641735 
C  0.7169012622154853  -3.3384750730991715  3.705162235614598 
H  0.9170173108376471  -3.1331741762273446  4.610979004518494 
C  1.185007108729208  -2.51391960724191  2.687942858987994 
H  1.7035108295892099  -1.7460045640222932  2.9010319667606677 
Br  -1.654629867976521  1.654629867976521  0.0 
C  -1.352040782177733  -1.3199206589279684  -0.4819701001757076 
C  -1.6380700204479186  -1.599217458033982  -1.8139382277462257 
H  -1.1579680913617836  -1.159339363685303  -2.503515938957912 
C  -2.63068216563725  -2.52632649780156  -2.142289956238523 
H  -2.8368222554424674  -2.694399528648736  -3.0538898079700485 
C  -3.3101544432602585  -3.1961573187854975  -1.1619874135498987 
H  -3.9960123560788676  -3.811990145619169  -1.3868663427944008 
C  -2.9974710358883443  -2.9701089012107795  0.12423560353005347 
H  -3.438659168087169  -3.468581175155742  0.8017084178296768 
C  -2.0389854250767776  -2.015940632791841  0.4912562833419403 
H  -1.8619130127668426  -1.8492165108145995  1.4101568590026907 

-Pd 0
lanl2dz
F 1 1.0
1.472 1.0
****
-P 0
6-31+g(d)
****
-N 0
6-31+g(d)
****
-C 0
6-31g(d)
****
-H 0
6-31g(d,p)
****
-Br 0
6-31+g(d)
****

-Pd 0
lanl2dz


