%chk=EROQOXID_PN_Pd_gaussain.chk
%nprocshared=32
%mem=64GB
#p opt rwb97xd/gen pseudo=read

This Gaussian input file was generated using the DART python program. This file was generated on the 2023-10-04 at 16:41:16

0 1
Pd  0.0  0.0  0.0 
N  1.5776148690348988  1.4153555472035988  1.7771262570476883e-16 
P  1.5776148690348986  -1.4153555472035992  -2.220446049250313e-16 
C  2.856800511167892  -0.4287482683760655  0.7680644376127415 
C  3.5198664553403005  -1.1426354623015167  1.697984261053447 
C  4.517829669791524  -0.5839987709329264  2.6787757830697094 
H  5.222210042840808  -0.13753776242627724  2.1836283424561262 
H  4.074525534246612  0.08193504468126123  3.2263405250229455 
C  5.130423944935073  -1.5986226496023506  3.566489598944629 
H  5.894786832694728  -1.9677030520723133  3.09926051987492 
H  5.472649171829688  -1.1315206261523385  4.344204420563619 
C  4.381938502106333  -2.6514669705534883  4.021670538477934 
H  3.6508830870320192  -2.324669593799743  4.567872574941911 
H  4.932799114621598  -3.2358831136450688  4.563873892648017 
C  3.7806961675789212  -3.4934545738483163  2.7239861889267996 
H  4.506457607932664  -3.9466862485800953  2.267191266980965 
H  3.1561636798883024  -4.166815572703332  3.035956503283673 
C  3.0818373196568167  -2.565850299718078  1.7558588051098192 
C  2.069055406120219  -2.8867769572617883  0.9331757457905125 
C  1.4625777152292285  -4.207492881746807  0.6375043280592333 
C  2.099895737406581  -5.393711544836192  1.0414850602066876 
H  2.8963446486492277  -5.362996184949491  1.5197534351254647 
C  1.5193255282249791  -6.6181210428057575  0.7105165518969744 
H  1.9319059901018092  -7.399015240863408  1.0045578141670972 
C  0.36001586857634993  -6.725385634589747  -0.03331283740869223 
H  0.002978528237615574  -7.553854949114095  -0.26373345822072897 
C  -0.23233142470180845  -5.557539531703609  -0.4143026458284321 
H  -0.9927474691995097  -5.586088139210631  -0.9468000507797256 
C  0.28178390871039305  -4.318993522212589  -0.018382936386813986 
H  -0.20200822573433874  -3.5492350490483355  -0.21188891469562665 
C  2.7788093120678377  1.0026438535559437  0.46989325165756624 
C  3.8823004464942352  1.8678847659327387  0.49776599446665415 
H  4.696316773441081  1.5878296654435742  0.8544460193544866 
C  3.739049539941889  3.13684980694207  -0.004788223969642735 
H  4.462469642771277  3.719624468495961  0.022889360336992737 
C  2.526680954495135  3.580649498292446  -0.5649277217549613 
C  2.385277044195483  4.845255125858145  -1.2991531169035793 
C  3.308177741964843  5.94671174082681  -1.2035423047608436 
C  4.206973032310836  6.146901043479284  -0.12034569326531852 
H  4.2194025935854755  5.537451678120689  0.5825246483130787 
C  5.055823948553158  7.219449272084651  -0.09641831751947605 
H  5.64361592192534  7.324231985723648  0.6189389002128389 
C  5.053748957020625  8.175974417073714  -1.1397617947185226 
H  5.657555593965239  8.882675826466022  -1.1253578666234896 
C  4.165613266718051  8.060542170863357  -2.167788629069462 
H  4.163257649703193  8.684639141935557  -2.8569708994210954 
C  3.2429421216405423  6.975349900246529  -2.1802603504764644 
C  2.239569074293087  6.943282964776024  -3.1969917651117115 
H  2.2471884113619653  7.570830771936475  -3.883436879764572 
C  1.2938530085781585  6.007359621968476  -3.1554952660229114 
H  0.5796206936245456  6.0632088325475255  -3.749137756040036 
C  1.3407203299072894  4.932264213605258  -2.2388654022786767 
C  0.31107064195213385  3.9374611566759445  -2.26797567568779 
H  -0.377133450460992  4.014152561330034  -2.887134916625075 
C  0.3197832422623932  2.8698049568005177  -1.3986978492920006 
H  -0.4221359445308752  2.3117643594675696  -1.3293899709786472 
C  1.4487097201582828  2.638694649820567  -0.6266029305719929 
C  1.8527890378349474  -1.7430845838519962  -1.758150080443302 
C  1.1213361936549016  -1.0097918383997455  -2.6894213761504204 
H  0.5258255490325483  -0.3532621615733673  -2.4111416147811706 
C  1.298221849500809  -1.2830824548559632  -4.057734174348626 
H  0.8179416203836627  -0.8064987714608477  -4.694058568223898 
C  2.181151840414498  -2.252402639251048  -4.4513329183373 
H  2.296102648037877  -2.427172201915867  -5.355412987685514 
C  2.89842414385393  -2.9708513230528464  -3.5266393196451737 
H  3.491382824769646  -3.627969417398515  -3.8153948266233586 
C  2.7525136143668085  -2.727506005559662  -2.170992642284518 
H  3.245153501486664  -3.2127740086116203  -1.548507014472522 
Br  -1.654629867976521  1.654629867976521  0.0 
C  -1.352040782177733  -1.3199206589279684  -0.4819701001757076 
C  -1.6380700204479186  -1.599217458033982  -1.8139382277462257 
H  -1.1579680913617836  -1.159339363685303  -2.503515938957912 
C  -2.63068216563725  -2.52632649780156  -2.142289956238523 
H  -2.8368222554424674  -2.694399528648736  -3.0538898079700485 
C  -3.3101544432602585  -3.1961573187854975  -1.1619874135498987 
H  -3.9960123560788676  -3.811990145619169  -1.3868663427944008 
C  -2.9974710358883443  -2.9701089012107795  0.12423560353005347 
H  -3.438659168087169  -3.468581175155742  0.8017084178296768 
C  -2.0389854250767776  -2.015940632791841  0.4912562833419403 
H  -1.8619130127668426  -1.8492165108145995  1.4101568590026907 

-Pd 0
lanl2dz
F 1 1.0
1.472 1.0
****
-H 0
6-31g(d,p)
****
-P 0
6-31+g(d)
****
-N 0
6-31+g(d)
****
-C 0
6-31g(d)
****
-Br 0
6-31+g(d)
****

-Pd 0
lanl2dz


