%chk=KEMUGUWU_PN_Pd_gaussain.chk
%nprocshared=32
%mem=64GB
#p opt rwb97xd/gen pseudo=read

This Gaussian input file was generated using the DART python program. This file was generated on the 2023-10-04 at 16:41:16

0 1
Pd  0.0  0.0  0.0 
P  1.361660904006574  -1.624185821419458  1.9890539674218538e-16 
N  4.204846608504375  -1.7211624160447863  0.053763926887166344 
N  1.361660904006574  1.624185821419458  -1.9890539674218538e-16 
C  3.0554088654390275  -1.0109226271074303  0.24013843433670568 
C  3.359477648326748  0.31415204514842704  0.4993451823569071 
C  4.800831730957205  0.41576280472011634  0.4348482675176177 
C  5.2891765325299644  -0.844709705876491  0.13962149907143695 
C  6.647689039780148  -1.1339316987082353  -0.03822960862048305 
C  7.5114892247951435  -0.06910212244182289  0.1245691133535707 
C  7.052766910080943  1.2046515070486514  0.42691136865890017 
C  5.724136971823846  1.4754653506368132  0.5552654854140084 
C  2.4755488861854134  1.4231599531387884  0.7647806047747279 
C  0.6545186398545486  2.7690741774665995  0.14206533862147658 
C  0.9506131653453225  3.7705919339622134  1.0069348174438053 
C  2.0493504952712973  3.5529098342065275  1.8908602403574903 
C  2.3696030352632294  4.542741877312885  2.88194720781727 
C  3.3501967856884747  4.250847936516341  3.8159708070658445 
C  3.9946548269123827  3.021993479915007  3.8074544937257953 
C  3.7320149377137346  2.085637032922456  2.833234152746787 
C  2.7554334275567096  2.372582214227322  1.8275193984822506 
C  1.4723893123261025  -3.1198321526237236  -1.028230986474475 
C  1.2120313750052487  -4.388730161595909  -0.532836227418153 
C  1.2070951194543722  -5.474913784636163  -1.3618409200588444 
C  1.4859228732870708  -5.32938246249137  -2.707750266176705 
C  1.768329634127976  -4.066735579385515  -3.2148348843761068 
C  1.7449560404177844  -2.9543811700722644  -2.3963226833684144 
C  0.8006958630574857  -2.208197873791039  1.6396240043125119 
C  1.621529859703992  -2.167460290610947  2.76984533629398 
C  1.1119176923868281  -2.5103385885592067  4.003708506065437 
C  -0.21212979956527378  -2.9172039430556955  4.128038238494346 
C  -1.0229872576486299  -2.950796192341752  3.0118893221491634 
C  -0.5357545248222975  -2.6191852073811215  1.7742171407068785 
C  4.400759253158069  -3.191576812910293  -0.03727149015171066 
H  6.948471144057755  -1.987463826447442  -0.252298201980943 
H  8.425765046339286  -0.2094593506564899  0.028413715025107613 
H  7.667994629278141  1.891076034523992  0.5450001556443753 
H  5.432544158958658  2.342794560399809  0.7195187452819986 
H  -0.09538935594644427  2.87732877043327  -0.39638444634957365 
H  0.46121808344854953  4.560661621849606  1.0232232211954935 
H  1.9278864959390332  5.362062938025636  2.896985105276293 
H  3.5783712473549745  4.8855930970787  4.456969680844794 
H  4.616851896345025  2.8269342411124403  4.47150468772264 
H  4.18422402140924  1.2739604515766978  2.829464282968941 
H  1.0381007907359472  -4.5024737662768946  0.37393781513596225 
H  1.0152868576167071  -6.31669931925259  -1.0191164470468481 
H  1.4834225759786972  -6.071008580091197  -3.269444836390069 
H  1.9763925881918274  -3.968836073120257  -4.116091148609109 
H  1.90620399228652  -2.10801047352314  -2.746243248698735 
H  2.5111259678893827  -1.9088707225571258  2.6895784714295377 
H  1.655920379519728  -2.4714460251794863  4.757096278003587 
H  -0.5494234401045299  -3.1640438980120953  4.958128623144679 
H  -1.913887976986876  -3.2013878146995296  3.1009277806192803 
H  -1.0871835130149303  -2.666202647745956  1.0262039782007704 
H  5.285620502515202  -3.4162083083885286  0.2588286797661332 
H  4.286149364225532  -3.473464081572614  -0.9474244943905468 
H  3.7545272527143627  -3.6353395249687552  0.5194162472640249 
Br  -1.654629867976521  1.654629867976521  0.0 
C  -1.352040782177733  -1.3199206589279684  -0.4819701001757076 
C  -1.6380700204479186  -1.599217458033982  -1.8139382277462257 
H  -1.1579680913617836  -1.159339363685303  -2.503515938957912 
C  -2.63068216563725  -2.52632649780156  -2.142289956238523 
H  -2.8368222554424674  -2.694399528648736  -3.0538898079700485 
C  -3.3101544432602585  -3.1961573187854975  -1.1619874135498987 
H  -3.9960123560788676  -3.811990145619169  -1.3868663427944008 
C  -2.9974710358883443  -2.9701089012107795  0.12423560353005347 
H  -3.438659168087169  -3.468581175155742  0.8017084178296768 
C  -2.0389854250767776  -2.015940632791841  0.4912562833419403 
H  -1.8619130127668426  -1.8492165108145995  1.4101568590026907 

-Pd 0
lanl2dz
F 1 1.0
1.472 1.0
****
-H 0
6-31g(d,p)
****
-P 0
6-31+g(d)
****
-N 0
6-31+g(d)
****
-C 0
6-31g(d)
****
-Br 0
6-31+g(d)
****

-Pd 0
lanl2dz


