%chk=UJIHEKOJ_PN_Pd_gaussain.chk
%nprocshared=32
%mem=64GB
#p opt rwb97xd/gen pseudo=read

This Gaussian input file was generated using the DART python program. This file was generated on the 2023-08-11 at 15:55:49

0 0
Pd  0.0  0.0  0.0 
P  1.4960737665636685  -1.5012872093640177  -3.488661657507462e-16 
N  1.4960737665636674  1.5012872093640177  -2.948769600173663e-16 
C  1.2402199987950144  2.7108104662558388  0.8210258403706931 
H  0.3091370812406127  3.017117085756585  0.6845501814111714 
H  1.8506121014004655  3.43939159861849  0.5433647076169988 
C  1.4607669726206638  2.3884584259656867  2.278217678962007 
C  2.7507941521411405  2.201235149668629  2.7650868512362616 
H  3.490249589222844  2.254746792543433  2.172484581035448 
C  2.9639093692948855  1.9371713499324406  4.099625357194969 
H  3.851371923872417  1.8235948577486205  4.417737058718091 
C  1.8968111691028084  1.835213750450298  4.99415877694781 
C  0.6171797871557085  2.001674603804179  4.502063785470626 
H  -0.122833758675432  1.927506110723385  5.092770520340462 
C  0.39264081126141503  2.2743463500541274  3.157930437509418 
H  -0.49616331697200566  2.38379085139615  2.8402843880121265 
C  2.1508482899893675  1.550479342314572  6.448806249030087 
H  1.3421293017931124  1.7463820304648237  6.966085269391777 
H  2.8872750932085403  2.1133420475513467  6.76847487206636 
H  2.3908757174072335  0.6066487540287634  6.560724856523308 
C  2.660449456272941  1.4277238736404128  -0.5212202786263351 
H  3.2167656798559956  2.1900649652459525  -0.41015966712087604 
C  3.2402129626143448  0.3069045364045864  -1.271200458359747 
C  4.329661447985529  0.6110315529755335  -2.087506507286338 
H  4.647895431062286  1.505259700412234  -2.122840093957218 
C  4.958240287185259  -0.36476278928132755  -2.848393295533986 
H  5.682556722007058  -0.134311828371215  -3.4184002488798884 
C  4.524014401190639  -1.6700075804030163  -2.770235217372652 
H  4.94337287997362  -2.342588828482622  -3.29322074394531 
C  3.4682653555780885  -2.004463540507218  -1.9233454645482035 
H  3.1898183735152497  -2.910599359499699  -1.8600622462440253 
C  2.816871562557692  -1.0345388679211804  -1.170428924735612 
C  2.316987460952678  -1.6093946580838094  1.6199804924430297 
C  3.6941360623519257  -1.5242652310142597  1.7677094683106602 
H  4.247950108083164  -1.4567892115236838  0.9984067453566084 
C  4.2683410172478355  -1.5368950128985883  3.0312325818240438 
H  5.211658820364797  -1.473997377848463  3.125622304928391 
C  3.47205400820339  -1.6389826241458243  4.148369891583675 
H  3.865917393746189  -1.6498915361100692  5.012708916022879 
C  2.1006696386036343  -1.7255464536312246  4.0154721706012655 
H  1.5534459692286593  -1.802827758818091  4.787923434788497 
C  1.5229999139399417  -1.7013162698441988  2.759174432244354 
H  0.5776662302944443  -1.7486612778857398  2.673329416205001 
C  1.0975475347188184  -3.204939444623846  -0.4989513942517306 
C  1.5176222344970247  -4.315546711907716  0.2142036551327115 
H  2.008745347600981  -4.205572868148705  1.0202749804284093 
C  1.2202187673337308  -5.598657477113019  -0.2543234325938365 
H  1.5022638867704783  -6.360752922850335  0.23609191401387664 
C  0.5118036165715488  -5.754689173472595  -1.4352109055995366 
H  0.315196290539403  -6.62717298724923  -1.7553390893763918 
C  0.09267892066885608  -4.654218490917536  -2.1468836788045067 
H  -0.3903393520019378  -4.768318507177961  -2.9573704612726175 
C  0.3738442245134559  -3.3785869508264974  -1.6845818014138465 
H  0.07526342926764329  -2.620780847567981  -2.1731016357855166 
Br  -1.654629867976521  1.654629867976521  0.0 
C  -1.352040782177733  -1.3199206589279684  -0.4819701001757076 
C  -1.6380700204479186  -1.599217458033982  -1.8139382277462257 
H  -1.1579680913617836  -1.159339363685303  -2.503515938957912 
C  -2.63068216563725  -2.52632649780156  -2.142289956238523 
H  -2.8368222554424674  -2.694399528648736  -3.0538898079700485 
C  -3.3101544432602585  -3.1961573187854975  -1.1619874135498987 
H  -3.9960123560788676  -3.811990145619169  -1.3868663427944008 
C  -2.9974710358883443  -2.9701089012107795  0.12423560353005347 
H  -3.438659168087169  -3.468581175155742  0.8017084178296768 
C  -2.0389854250767776  -2.015940632791841  0.4912562833419403 
H  -1.8619130127668426  -1.8492165108145995  1.4101568590026907 

-Pd 0
lanl2dz
F 1 1.0
1.472 1.0
****
-P 0
6-31+g(d)
****
-H 0
6-31g(d,p)
****
-N 0
6-31+g(d)
****
-Br 0
6-31+g(d)
****
-C 0
6-31g(d)
****

-Pd 0
lanl2dz
