%chk=EXEGAHUG_PN_Ni_gaussain.chk
%nprocshared=32
%mem=64GB
#p opt rwb97xd/gen pseudo=read

This Gaussian input file was generated using the DART python program. This file was generated on the 2023-10-04 at 16:41:16

0 1
Ni  0.0  0.0  0.0 
P  1.33250131988678  -1.518071221155318  -2.1978795484189725e-16 
N  1.3325013198867754  1.518071221155318  -1.9376652492783912e-17 
C  0.8023322799909742  2.7619245290145855  0.6163880739140993 
H  0.04782846910593386  3.1048603496434763  0.07548309862772141 
H  1.5104527680178685  3.4534420384507225  0.6317050115911516 
C  0.3348228872016099  2.490623288822074  2.0156316927038254 
C  -0.9959368507907804  2.2821719094729724  2.3091645054964096 
H  -1.6328670227114892  2.297279293553771  1.6047465166266512 
C  -1.4264232529756757  2.052687972787266  3.597670861839755 
H  -2.3476235947453086  1.8973086422835976  3.7698882650711005 
C  -0.5276137255918532  2.0488249195139576  4.630015455618178 
H  -0.8251049026112893  1.9065153776496524  5.519649382517278 
C  0.8219778611721884  2.253627049787785  4.37024733522798 
H  1.4521295684414408  2.248418782949037  5.0816417053084715 
C  1.248241906250726  2.466592097471093  3.0591162577461883 
H  2.171106697263249  2.597347830294311  2.8787032431289035 
C  2.6084577702850105  1.430453039513766  -0.06861603991053357 
H  3.086586795016053  2.2089824052839373  0.19299197285520375 
C  3.433576639248752  0.2932992512440528  -0.4954278999892563 
C  4.743956470328776  0.6122654323112966  -0.8599808366584046 
H  5.017569505798976  1.5220537978063664  -0.8559637692457125 
C  5.6439992912653505  -0.3541912526941888  -1.2222178536635488 
H  6.520362990836864  -0.10785471736655002  -1.49090785614987 
C  5.279104572449445  -1.6778325166862527  -1.1984757299638522 
H  5.909199510294195  -2.349956710058078  -1.4327429662277278 
C  3.9762678103189457  -2.0339439049178125  -0.8283303255439971 
H  3.7286767612150347  -2.951029213959159  -0.8112300815644661 
C  3.038911827444969  -1.0645787496518593  -0.48481465322816064 
C  1.4624854785658161  -1.7984033452806452  1.7918879732494362 
C  0.5294223487795333  -1.2026930173345265  2.6301088218399418 
H  -0.14664870185777024  -0.6461704687040084  2.2603446708518 
C  0.5740783819087267  -1.4114500773351888  4.000922667190617 
H  -0.06398713247004406  -0.9898621102614621  4.564969646953117 
C  1.5326822710110366  -2.222841363089611  4.542280705091376 
H  1.5467192915115577  -2.378433848941652  5.479243223232762 
C  2.487221617871997  -2.820287110272512  3.7273806716717304 
H  3.155295188273462  -3.3792980171219065  4.108183771126646 
C  2.464369760430881  -2.602033605178169  2.360711154149089 
H  3.1274521872543533  -2.9967237367413038  1.8070694872881223 
C  1.1328251255798114  -3.1807300607577833  -0.7198192137744597 
C  0.8748653476788817  -4.324272564434814  0.032384532074619055 
H  0.8535205429827931  -4.262677404275702  0.9807870181307675 
C  0.652010090503923  -5.542301952142189  -0.5696468998545516 
H  0.47181453676757223  -6.309972716701638  -0.040996930920128245 
C  0.688739936231119  -5.6419029180869416  -1.946699860352361 
H  0.5407308927721903  -6.481981556841087  -2.3648145022430196 
C  0.9426802868585706  -4.5273939962246414  -2.712863381679594 
H  0.9714764466410017  -4.6005350244271925  -3.659493795925454 
C  1.156854434739032  -3.2987682051497367  -2.109290983466044 
H  1.320687559844544  -2.532203749027333  -2.645209859535869 
Br  -1.5839191898578664  1.5839191898578664  0.0 
C  -1.2937473829822488  -1.2398794889499034  -0.4598005675376139 
C  -1.601562203225019  -1.4938654694550033  -1.7919791134336869 
H  -1.1309417375171225  -1.0428217585005106  -2.480879663633267 
C  -2.60218398542082  -2.411889969420291  -2.121542410022959 
H  -2.8231586547736818  -2.5626138747145775  -3.03270050271447 
C  -3.2683208079706407  -3.09759503004543  -1.143064365570095 
H  -3.9596020908062854  -3.707191723557817  -1.3683280760515548 
C  -2.9347449854640226  -2.896087320001541  0.14198826503765638 
H  -3.3668350933519986  -3.405606940434718  0.8171022443470677 
C  -1.9675509241539992  -1.9516175659140573  0.5112421903797603 
H  -1.7755298364628027  -1.8022912010877177  1.4301324877763764 

-Ni 0
lanl2dz
F 1 1.0
3.130 1.0
****
-H 0
6-31g(d,p)
****
-P 0
6-31+g(d)
****
-N 0
6-31+g(d)
****
-C 0
6-31g(d)
****
-Br 0
6-31+g(d)
****

-Ni 0
lanl2dz


