%chk=LUREQALE_PN_Ni_gaussain.chk
%nprocshared=32
%mem=64GB
#p opt rwb97xd/gen pseudo=read

This Gaussian input file was generated using the DART python program. This file was generated on the 2023-10-04 at 16:41:16

0 1
Ni  0.0  0.0  0.0 
P  1.6013605004807627  -1.2311557771053998  -1.2689065331326181e-15 
N  1.6013605004807625  1.2311557771053998  -3.975079570587435e-17 
N  3.929032373161716  0.6022114392730719  0.015040047832060236 
C  2.59946021008606  0.3700017625478763  -0.053533848145845296 
C  1.2320667564467147  -3.1408327479008826  4.182714282356756 
H  1.4158722484892396  -3.59472003851964  5.019522437497324 
H  0.3038358727719337  -2.8579656148571773  4.187541459171907 
C  2.0840981636046543  -2.1599902603327013  1.530365522144827 
C  3.562954767019802  -2.5915053373679258  1.5660001236829222 
H  3.751139395454077  -3.178539085200576  0.8185750876247125 
H  4.134801898018178  -1.8103289924368304  1.4905553300319527 
C  1.7241370404498269  -1.1610773462484643  -2.7380535540347015 
H  0.9847317197834939  -0.5365392379939676  -2.6701605270861313 
H  2.5507874556264696  -0.6598588112139879  -2.6631701698551393 
C  3.605771182136044  -2.3617599791769255  4.055417540466695 
H  3.8087105989595607  -2.806399025006732  4.892989168462129 
H  4.185211409857041  -1.587546510235538  3.975360454531761 
C  1.714203244018308  2.6504157623106757  -0.18106515298653747 
C  2.100046938910306  3.1454482401933035  -1.4135068347522584 
H  2.271686321691883  2.564769512696421  -2.1194468305812113 
C  1.1721304598702578  -3.399125196276226  1.6767946444862263 
H  0.24084195400527153  -3.1289066981896756  1.6524419827092638 
H  1.3307907034673199  -4.012080875024093  0.9430828938698992 
C  0.2847842648117387  -2.937811128177289  -1.7394238351619182 
H  0.18893891583548883  -3.588717881735408  -1.0259044400141297 
H  -0.4467526410444409  -2.3034775210718252  -1.6737637996231107 
C  1.6383535019905595  -2.195639262527363  -1.5977672715973539 
C  3.851659590213446  -3.3201261599165277  2.883620452917939 
H  4.786801332590496  -3.6134277280162137  2.894954111386238 
C  1.4784238553276816  -4.094051484979945  3.0120007780729927 
H  0.8995961130187907  -4.880303925979643  3.1071862483697554 
C  0.23730805516372144  -3.650349067171908  -3.1028626108357122 
H  -0.6154187901001824  -4.126950319354285  -3.1858434748012066 
C  2.1429378575328295  -1.9185129870838344  4.045706802552504 
H  1.982255232168168  -1.306014590030508  4.793309228654124 
C  1.6735194356804273  -1.881522769560695  -4.097343434860687 
H  1.750723892677761  -1.222519124296933  -4.818431680049045 
C  0.349875543542151  -2.6217830940037627  -4.2303391823886844 
H  0.3076840432282377  -3.0687351452655034  -5.088966995340366 
H  -0.38649254744172024  -1.9921639187418831  -4.176637983860809 
C  2.9370322057789844  -4.538735378911859  3.0385413973451056 
H  3.1015211712930997  -5.164576790964167  2.317396025603398 
H  3.127350692115634  -4.986904132420264  3.878839429079817 
C  2.7171015111696617  -3.914513501963946  -3.085683351789235 
H  3.4544134217145492  -4.556609757937835  -3.1629058526097684 
C  1.8215977829925516  -1.2072694821727286  2.724039350726497 
H  2.373953930104539  -0.4159501194105676  2.6360386526310173 
H  0.8915202682441672  -0.9293691982586904  2.7201012344261337 
C  1.9898932314798894  5.3787292645202625  -0.5460979247677709 
H  2.1139383553267637  6.293389842767782  -0.6615506157269935 
C  4.830279993299319  -0.2923195010676468  -0.7680828377801079 
H  4.345701160245093  -1.1370507969278338  -0.8779272839309409 
C  2.2285392982013956  4.5116616928521065  -1.5890724503434788 
H  2.4793703582366566  4.848260332688181  -2.418334745990714 
C  2.7720574946795002  -3.231455536726452  -1.7159960458678598 
H  3.6288400536497685  -2.79249479751714  -1.6050417486226083 
H  2.681633786234042  -3.896486790468362  -1.0156145466137394 
C  1.4094313466086295  3.5172194153049783  0.858827999075278 
H  1.1046743310626628  3.1831294060235713  1.6708987824272503 
C  1.3826868397276968  -4.651256866912107  -3.2069542833654765 
H  1.3387085817205207  -5.112675483113237  -4.058786804137994 
H  1.3076557637612096  -5.311361177116245  -2.4997579405516444 
C  1.5621074060515294  4.881023798327627  0.6791241434649965 
H  1.3778229993431164  5.464820993910675  1.378709729275277 
C  2.8404285847605006  -2.8601280544521592  -4.1811062797010425 
H  3.6776587360883175  -2.3787858181404458  -4.078718315320083 
H  2.843280612815085  -3.291371500548214  -5.049212503693922 
C  6.1473071578274405  -0.6454049538460438  -0.10101000747496272 
H  6.698114228448774  0.1397003902336189  -0.04458031979985906 
H  6.598519883326895  -1.3173418040673774  -0.6189509844810357 
H  5.9787389031392095  -0.9828083821730814  0.7815908593184752 
C  4.441885864985331  1.8128730449915462  0.7195247902952907 
H  3.6510909877348725  2.3313014208877645  0.977748997487522 
C  5.154970204979078  1.4562676233508915  2.021538479667356 
H  4.6647187479378855  0.7683189366369024  2.4777594933410994 
H  5.209245022131757  2.235222035809372  2.5807183411917984 
H  6.039470611566699  1.1404420452796986  1.824541309681815 
C  5.100475740587588  0.2286397162200044  -2.1841036752222625 
H  4.299302209289302  0.6192560979508992  -2.5395476582498437 
H  5.378694312866582  -0.49947402996051393  -2.743925904739809 
H  5.793499852154145  0.8931478517570743  -2.1531990057943546 
C  5.273351539015086  2.7256277921138476  -0.16277376717604947 
H  6.091615778918172  2.2839935366353457  -0.3992258090022202 
H  5.472388613483884  3.535534323474447  0.31265339175194284 
H  4.781347882482621  2.9360761811951743  -0.9611744670077743 
Br  -1.5839191898578664  1.5839191898578664  0.0 
C  -1.2937473829822488  -1.2398794889499034  -0.4598005675376139 
C  -1.601562203225019  -1.4938654694550033  -1.7919791134336869 
H  -1.1309417375171225  -1.0428217585005106  -2.480879663633267 
C  -2.60218398542082  -2.411889969420291  -2.121542410022959 
H  -2.8231586547736818  -2.5626138747145775  -3.03270050271447 
C  -3.2683208079706407  -3.09759503004543  -1.143064365570095 
H  -3.9596020908062854  -3.707191723557817  -1.3683280760515548 
C  -2.9347449854640226  -2.896087320001541  0.14198826503765638 
H  -3.3668350933519986  -3.405606940434718  0.8171022443470677 
C  -1.9675509241539992  -1.9516175659140573  0.5112421903797603 
H  -1.7755298364628027  -1.8022912010877177  1.4301324877763764 

-Ni 0
lanl2dz
F 1 1.0
3.130 1.0
****
-H 0
6-31g(d,p)
****
-P 0
6-31+g(d)
****
-N 0
6-31+g(d)
****
-C 0
6-31g(d)
****
-Br 0
6-31+g(d)
****

-Ni 0
lanl2dz


