%chk=AYEZUSOH_PN_Pd_gaussain.chk
%nprocshared=32
%mem=64GB
#p opt rwb97xd/gen pseudo=read

This Gaussian input file was generated using the DART python program. This file was generated on the 2023-10-04 at 16:41:16

0 1
Pd  0.0  0.0  0.0 
P  1.5436714263404625  -1.4523011146108789  7.986438500439379e-17 
N  1.5436714263404625  1.4523011146108789  -6.683328867811896e-17 
C  0.2515439638181325  3.24793519404813  -1.0513278286810457 
H  -0.5150214395252053  3.150375880366846  -0.4503697413645236 
H  0.08622551712033433  2.745797219585862  -1.8767922469235154 
H  0.38347351821684406  4.195466219918551  -1.2646183293816362 
C  1.467731836893911  2.7173850056277025  -0.3892429285734387 
C  2.5760229968514925  3.602640826246192  -0.23550689889595888 
H  2.478477962810873  4.515201180753044  -0.48316970538159776 
C  3.763958591407923  3.1746127102128603  0.2545701716459025 
H  4.482667060504521  3.7800213208339284  0.38985420852649516 
C  3.903692324244833  1.810039279081821  0.5593992466350307 
C  5.133378593161533  1.2402654273129954  0.9465930454984219 
H  5.879057675771376  1.8105278279046952  1.0947669980998265 
C  5.28651633959055  -0.10891076988698675  1.1168564576797855 
H  6.124872490489427  -0.4671337270726886  1.3883897285604387 
C  4.187533154982256  -0.9697235155516223  0.8845558833164395 
H  4.290423931474117  -1.9092116260221392  0.9822738366179639 
C  2.9686570946640556  -0.4459577259730549  0.5182220365995263 
C  2.8006046878560373  0.9516638275598317  0.37657698138632745 
C  1.3860900671927265  -2.7598608320106686  1.2430358605778706 
C  1.2889233199971084  -2.360268730096259  2.580871196232869 
H  1.4153764740944481  -1.447235756658598  2.809514235126291 
C  1.0111914232370356  -3.2824380010045413  3.570942430697622 
H  0.9529313203614485  -3.0033201163442307  4.477008596535261 
C  0.819686664909647  -4.612358064115904  3.2423003255561187 
H  0.6006164624171417  -5.241894174638662  3.9191991968269844 
C  0.9451725571634365  -5.026519231485906  1.9232593601998278 
H  0.8377195186618195  -5.944997167349365  1.7040023743390116 
C  1.2288789576947186  -4.102691027746298  0.9189560054942577 
H  1.313201226545015  -4.388381547312669  0.01686148605305363 
C  2.0190591510298193  -2.2162594348503237  -1.5711552043485806 
C  3.102684406768809  -3.0807551873970636  -1.6956592964632233 
H  3.5953054657202204  -3.339908248847989  -0.925978555494464 
C  3.460295947152523  -3.567125863487372  -2.942411325386347 
H  4.204992957553726  -4.148214982341427  -3.026971650887938 
C  2.7310974884051054  -3.202982811692155  -4.073355261039066 
H  2.982042480690432  -3.5308579886850344  -4.928933410104834 
C  1.64733267847657  -2.367230740176869  -3.944947154914451 
H  1.139772110819135  -2.1348186931128983  -4.713488058535611 
C  1.2861190266079712  -1.862370905929305  -2.6958657862809776 
H  0.5424478233926855  -1.2778006529294863  -2.615863906202597 
Br  -1.654629867976521  1.654629867976521  0.0 
C  -1.352040782177733  -1.3199206589279684  -0.4819701001757076 
C  -1.6380700204479186  -1.599217458033982  -1.8139382277462257 
H  -1.1579680913617836  -1.159339363685303  -2.503515938957912 
C  -2.63068216563725  -2.52632649780156  -2.142289956238523 
H  -2.8368222554424674  -2.694399528648736  -3.0538898079700485 
C  -3.3101544432602585  -3.1961573187854975  -1.1619874135498987 
H  -3.9960123560788676  -3.811990145619169  -1.3868663427944008 
C  -2.9974710358883443  -2.9701089012107795  0.12423560353005347 
H  -3.438659168087169  -3.468581175155742  0.8017084178296768 
C  -2.0389854250767776  -2.015940632791841  0.4912562833419403 
H  -1.8619130127668426  -1.8492165108145995  1.4101568590026907 

-Pd 0
lanl2dz
F 1 1.0
1.472 1.0
****
-H 0
6-31g(d,p)
****
-P 0
6-31+g(d)
****
-N 0
6-31+g(d)
****
-C 0
6-31g(d)
****
-Br 0
6-31+g(d)
****

-Pd 0
lanl2dz


