%chk=NUCABAQO_PN_Pd_gaussain.chk
%nprocshared=32
%mem=64GB
#p opt rwb97xd/gen pseudo=read

This Gaussian input file was generated using the DART python program. This file was generated on the 2023-10-04 at 16:41:16

0 1
Pd  0.0  0.0  0.0 
P  1.4608292045957993  -1.535603475836128  2.7418757050605286e-16 
N  1.4608292045958011  1.535603475836128  3.11543172937094e-16 
N  3.0926895710045588  -1.0433422300816495  -0.1619429543777622 
C  2.729937669687863  1.4113331951270447  0.20772612056310405 
H  3.1768766200580316  2.198640686301946  0.49871084349869377 
C  3.550379097981345  0.25903086067411896  0.06034982411725282 
C  4.92697036359683  0.21733590100027667  0.08103478892162119 
H  5.503156347941294  0.9589777590195752  0.21694577405047472 
C  5.3301028562824975  -1.1070075489861713  -0.13462596276734298 
H  6.226292775437263  -1.4206351798026267  -0.1859930533394037 
C  4.21028251283975  -1.857364785168256  -0.2567045297681136 
H  4.19337492601176  -2.7973434565593562  -0.38787499457432434 
C  0.9062236836014378  2.8382373793644007  0.3009003979081349 
C  1.2063771459164965  3.924058567084826  -0.5384490569422857 
C  0.672402652744071  5.158885245871499  -0.19070507928353267 
H  0.8695117063402024  5.915033947845336  -0.7299437013180904 
C  -0.13164507582539753  5.312295291958906  0.910046417622913 
H  -0.4780195792558879  6.169562412485064  1.1308968815981406 
C  -0.43666931250171426  4.216365371584335  1.6999972987970762 
H  -0.9983809970352748  4.329025181048365  2.456439240250631 
C  0.0613213216597599  2.9589955489817426  1.4072029212967783 
C  2.0231762578260195  3.788617271025794  -1.8081627278562102 
H  2.242982566679011  2.8198248168475017  -1.9338089268262626 
C  3.3414238284753015  4.561458739331149  -1.6965409676795777 
H  3.151450601481369  5.515940018557176  -1.571753545907322 
H  3.862855445627138  4.436504818596161  -2.5166960239508893 
H  3.8524075720712156  4.226217267101676  -0.9305690562636649 
C  1.228714435914203  4.253087963638444  -3.0285094159856616 
H  0.39048217251750317  3.750138717851233  -3.082419885868007 
H  1.756534361156302  4.097469567509272  -3.8393167736876284 
H  1.0314015609413953  5.208017193791143  -2.9457992910314594 
C  -0.2870623006012678  1.7561796631982785  2.268929871465587 
H  -0.23522773973160804  0.9475068452861902  1.6852661139222798 
C  0.7266852413740557  1.5758244677600814  3.3781677064755113 
H  1.621315818412293  1.4749685127970529  2.990610204965389 
H  0.5041488194486248  0.7761243209944277  3.897535732233378 
H  0.7119072109490469  2.361502264134612  3.9655533635193425 
C  -1.701736951786256  1.8171372290497303  2.834642304120336 
H  -1.7762958305864385  2.5791811247649523  3.447764489818466 
H  -1.8961934729586325  0.9884577326666437  3.320053350191417 
H  -2.3424984575803975  1.9238808758174928  2.1004851093948713 
C  1.2412862164965326  -1.912311391715925  1.7542721888264654 
C  2.325377306294392  -2.0940947618323578  2.603935919587074 
H  3.212068068695608  -2.032715163203435  2.268416908583937 
C  2.102070587057674  -2.366000131004991  3.9441178398347927 
H  2.84053329317207  -2.492089022471307  4.528039429713992 
C  0.8220420074766024  -2.4569009020676478  4.436794453117738 
H  0.6806621983300779  -2.6451679837389652  5.357461333984352 
C  -0.2561243070118582  -2.2748605971329448  3.596745867807509 
H  -1.1402122337164249  -2.3368307225575333  3.9408139445163353 
C  -0.053841382853994535  -2.0004419880121556  2.2558978653991772 
H  -0.7973339008571574  -1.873865604161392  1.6780880136965568 
C  1.4699368229462488  -3.0863006821597967  -0.9107748325398378 
C  1.2072479639384563  -4.286740143913606  -0.27922461916213404 
H  1.0178856942011403  -4.3057908789896455  0.649931756424348 
C  1.2215059929694378  -5.469295757113967  -1.0131038873639833 
H  1.0397246137406055  -6.29720268100769  -0.5854003270158173 
C  1.499895372725159  -5.434889107981297  -2.3581168002145483 
H  1.5073201932450846  -6.243492217142601  -2.8584027423465566 
C  1.770159564181775  -4.231721139118765  -2.9935476819943876 
H  1.9717786106879394  -4.2185197493596265  -3.921390062678945 
C  1.7448729071157008  -3.0615202941242203  -2.2779347507609735 
H  1.9144760273693189  -2.2349794422881657  -2.7136554088050535 
Br  -1.654629867976521  1.654629867976521  0.0 
C  -1.352040782177733  -1.3199206589279684  -0.4819701001757076 
C  -1.6380700204479186  -1.599217458033982  -1.8139382277462257 
H  -1.1579680913617836  -1.159339363685303  -2.503515938957912 
C  -2.63068216563725  -2.52632649780156  -2.142289956238523 
H  -2.8368222554424674  -2.694399528648736  -3.0538898079700485 
C  -3.3101544432602585  -3.1961573187854975  -1.1619874135498987 
H  -3.9960123560788676  -3.811990145619169  -1.3868663427944008 
C  -2.9974710358883443  -2.9701089012107795  0.12423560353005347 
H  -3.438659168087169  -3.468581175155742  0.8017084178296768 
C  -2.0389854250767776  -2.015940632791841  0.4912562833419403 
H  -1.8619130127668426  -1.8492165108145995  1.4101568590026907 

-Pd 0
lanl2dz
F 1 1.0
1.472 1.0
****
-H 0
6-31g(d,p)
****
-P 0
6-31+g(d)
****
-N 0
6-31+g(d)
****
-C 0
6-31g(d)
****
-Br 0
6-31+g(d)
****

-Pd 0
lanl2dz


