%chk=DAQELUYU_PN_Ni_gaussain.chk
%nprocshared=32
%mem=64GB
#p opt rwb97xd/gen pseudo=read

This Gaussian input file was generated using the DART python program. This file was generated on the 2023-08-11 at 15:55:49

0 0
Ni  0.0  0.0  0.0 
P  1.418858860140785  1.4376854784687787  4.251536881898577e-15 
N  1.4188588601407814  -1.4376854784687787  -1.1102230246251565e-16 
C  2.924543239807919  0.44423379422335163  0.30678291982501926 
H  3.684731641338951  0.8191729502994869  -0.20587008506096416 
H  3.1551563142082046  0.470471330572523  1.268760825809343 
C  2.67918598447549  -0.9702231996428232  -0.11670315994480185 
C  3.689855449311361  -1.7746093343846805  -0.60603417171848 
H  4.572658820194569  -1.4328017086142777  -0.6890622110934113 
C  3.4192951180644378  -3.062667190385496  -0.9705847535999845 
H  4.110029533594725  -3.6264908827993194  -1.2956479183462934 
C  2.133062246253677  -3.5302750712941986  -0.857470611311926 
H  1.9253235684860306  -4.424701289168753  -1.1022852198179711 
C  1.148888335553277  -2.693912951061437  -0.38591407457802723 
H  0.255849706079307  -3.0138443803542216  -0.33248555393656154 
C  1.6014266839174927  2.9695359095836578  0.9627295759529824 
C  1.8474909896500487  2.9505343265468067  2.32662559738809 
C  2.103611758577428  4.207361544363933  2.9473646377892146 
H  2.3159730946268855  4.236540850706151  3.8737468974599705 
C  2.0499163212164335  5.34809914278965  2.247857538794108 
H  2.2343423020249324  6.16872914682681  2.6893632172137587 
C  1.7402988147716214  5.368685432658503  0.9243855125040239 
H  1.6947291241012734  6.194789711227794  0.4555342096139477 
C  1.4979926675092612  4.206096684958149  0.2830671869281774 
H  1.2547017092704513  4.218733496188483  -0.6346507330457059 
C  1.7744423997544787  1.7586505552611438  3.1611238833420825 
H  1.6004541572771513  0.9760043041503617  2.597111722921844 
H  1.049534674343201  1.8598440792820925  3.8121968825789443 
H  2.6237389737360477  1.6378841375708706  3.6349920630940478 
C  1.4643319464076392  1.857717529319818  -1.7669937675847427 
C  2.563837518574335  2.5112782761395938  -2.402149045442682 
C  2.454766667464683  2.712899857731087  -3.749694546446186 
H  3.169229716343213  3.149896224049775  -4.199357117282881 
C  1.3632434443066652  2.3154130300776288  -4.488880128792543 
H  1.3301627759044892  2.486090809518892  -5.422673695370872 
C  0.3122529174216371  1.6630453084540384  -3.862647130475165 
H  -0.4368986999740301  1.366558694111945  -4.364792419877974 
C  0.36623607109116607  1.4540633722102363  -2.5007301031039075 
H  -0.36065764227238084  1.025939130699811  -2.062721457865378 
C  3.7773577044279545  2.9995111584439984  -1.7072054641624645 
H  4.386880803741626  3.406573487976117  -2.358119123013601 
H  4.225019573757624  2.247648288443205  -1.2643663337071298 
H  3.5230473419434567  3.6686808999542526  -1.0353370718562753 
Br  -1.5839191898578664  1.5839191898578664  0.0 
C  -1.2937473829822488  -1.2398794889499034  -0.4598005675376139 
C  -1.601562203225019  -1.4938654694550033  -1.7919791134336869 
H  -1.1309417375171225  -1.0428217585005106  -2.480879663633267 
C  -2.60218398542082  -2.411889969420291  -2.121542410022959 
H  -2.8231586547736818  -2.5626138747145775  -3.03270050271447 
C  -3.2683208079706407  -3.09759503004543  -1.143064365570095 
H  -3.9596020908062854  -3.707191723557817  -1.3683280760515548 
C  -2.9347449854640226  -2.896087320001541  0.14198826503765638 
H  -3.3668350933519986  -3.405606940434718  0.8171022443470677 
C  -1.9675509241539992  -1.9516175659140573  0.5112421903797603 
H  -1.7755298364628027  -1.8022912010877177  1.4301324877763764 

-Ni 0
lanl2dz
F 1 1.0
3.130 1.0
****
-P 0
6-31+g(d)
****
-H 0
6-31g(d,p)
****
-N 0
6-31+g(d)
****
-Br 0
6-31+g(d)
****
-C 0
6-31g(d)
****

-Ni 0
lanl2dz
