%chk=XUJEDOTU_PN_Ni_gaussain.chk
%nprocshared=32
%mem=64GB
#p opt rwb97xd/gen pseudo=read

This Gaussian input file was generated using the DART python program. This file was generated on the 2023-10-04 at 16:41:16

0 1
Ni  0.0  0.0  0.0 
P  1.377500640653208  1.4773598021470606  -1.2100299491207187e-15 
N  1.3775006406532082  -1.4773598021470606  -1.942890293094024e-16 
N  1.8681611494910801  -4.313326595010254  -0.4701825973430125 
C  1.332000883607195  -2.1078002091802053  -1.3537244643163813 
H  1.6073452078959913  -1.4369877005687446  -2.0282517738986954 
H  0.3983990864356468  -2.3709827591825343  -1.5534090147762107 
C  2.2251817082368053  -3.3287535256157414  -1.484071783425984 
H  2.119684036924877  -3.7241270014278687  -2.38560279563356 
H  3.1732993230001503  -3.0626155378157582  -1.3731500992282712 
C  2.0681558680666337  -3.74410967928136  0.8540174537784252 
H  3.011512531608426  -3.460625774824678  0.9587550843860676 
H  1.869055317069104  -4.424221557606302  1.5456356602723051 
C  1.1488390485995208  -2.5438067859557942  1.0286579980949697 
H  0.20806901919420362  -2.8492187575988988  0.972097947265808 
H  1.28812315762521  -2.1587559512347787  1.9304119621303841 
C  2.7142989102319315  -0.8225930089838941  0.25005909905899215 
H  3.437916064447467  -1.4307310662765662  -0.04487819494996169 
H  2.826834626127032  -0.6617823251851814  1.2200444941161546 
C  2.8294474369110088  0.49468324773551164  -0.4978536233137133 
H  2.828236430741872  0.3427985919638479  -1.4766085695618583 
H  3.666210352517536  0.9623267723501256  -0.24955723398896248 
C  2.6018078332263217  -5.560492391942228  -0.6406808038066998 
H  2.439482922117846  -5.915229358684087  -1.540480069010018 
H  2.2988968053921166  -6.211745487905528  0.027098451797013066 
H  3.560458021213849  -5.394765830515434  -0.523027822930141 
C  1.138699794553098  2.768669334345976  -1.243117185929843 
C  0.9755599097164591  4.11021185304699  -0.9058358664162564 
H  1.0629898483220601  4.389000902540162  -0.0010972733861283326 
C  0.6808090343989636  5.038262665724728  -1.8953879977301038 
H  0.5779591069682023  5.955297296036904  -1.668468916920018 
C  0.5375161879268221  4.632971230199129  -3.211964752970595 
H  0.32953626139892744  5.27237806164747  -3.8828806896263237 
C  0.6959341326062931  3.3029048393684937  -3.556640108611674 
H  0.5910111003660614  3.028120948260841  -4.460512456066376 
C  1.0062336524680886  2.3662687518094656  -2.5719142292646944 
H  1.1277944908223119  1.4538221642950884  -2.806387889857906 
C  1.7756096467288383  2.2483412268106098  1.5837026368940925 
C  2.8802380825076357  3.0886124614792996  1.7223807211658329 
H  3.4513200069821326  3.2479386693928465  0.9795000207768565 
C  3.1473776557424005  3.697994910962234  2.9446257410673886 
H  3.891610041191891  4.282397023937864  3.034789296885624 
C  2.326444816621726  3.4479694165206096  4.029626011013231 
H  2.5043813765284044  3.8699834574427383  4.862124149097129 
C  1.2519541201585642  2.588293071493335  3.9113611175972554 
H  0.7070617661440646  2.4023709964505358  4.668137725684693 
C  0.9665771566145976  2.0003142638003313  2.6933258141752296 
H  0.21610073578824074  1.4241079674310577  2.6093348277059563 
Br  -1.5839191898578664  1.5839191898578664  0.0 
C  -1.2937473829822488  -1.2398794889499034  -0.4598005675376139 
C  -1.601562203225019  -1.4938654694550033  -1.7919791134336869 
H  -1.1309417375171225  -1.0428217585005106  -2.480879663633267 
C  -2.60218398542082  -2.411889969420291  -2.121542410022959 
H  -2.8231586547736818  -2.5626138747145775  -3.03270050271447 
C  -3.2683208079706407  -3.09759503004543  -1.143064365570095 
H  -3.9596020908062854  -3.707191723557817  -1.3683280760515548 
C  -2.9347449854640226  -2.896087320001541  0.14198826503765638 
H  -3.3668350933519986  -3.405606940434718  0.8171022443470677 
C  -1.9675509241539992  -1.9516175659140573  0.5112421903797603 
H  -1.7755298364628027  -1.8022912010877177  1.4301324877763764 

-Ni 0
lanl2dz
F 1 1.0
3.130 1.0
****
-H 0
6-31g(d,p)
****
-P 0
6-31+g(d)
****
-N 0
6-31+g(d)
****
-C 0
6-31g(d)
****
-Br 0
6-31+g(d)
****

-Ni 0
lanl2dz


