%chk=MOYOBOPU_PN_Pd_gaussain.chk
%nprocshared=32
%mem=64GB
#p opt rwb97xd/gen pseudo=read

This Gaussian input file was generated using the DART python program. This file was generated on the 2023-10-04 at 09:55:46

0 1
Pd  0.0  0.0  0.0 
P  1.3892422349971942  1.6006579936076284  -2.0035905570569972e-16 
N  1.3892422349971942  -1.6006579936076293  1.6653345369377348e-16 
C  3.458223440078572  -0.2576482353800644  -0.37818046264398797 
C  3.1218618238686062  1.044894549103777  0.024681855933598063 
C  4.111270892314016  1.8986451725708082  0.4872043615564428 
C  5.441595425293871  1.494873459574616  0.5677873047648272 
C  5.7735800904135415  0.2108925915767781  0.15767050098705182 
C  4.8199824800742155  -0.6341310020963885  -0.28534332914790855 
C  2.487449396176765  -1.2163827502661848  -0.9414181528358279 
C  2.022623514786467  -0.8519159857669553  -2.317896005024232 
C  1.9506770097402706  -1.9762013060457708  1.3247685511787461 
C  0.6771823818225737  -2.7746770829476164  -0.6001519085717073 
C  1.1619473449294841  2.549032437781438  -1.5337069200427955 
C  -0.005441307042645782  2.4200554602981352  -2.2852153594671205 
C  -0.19796575299426955  3.215106679910483  -3.3979456708651727 
C  0.7320323163710917  4.141437630008163  -3.731596958691023 
C  1.8881685657737965  4.272451332396487  -3.0302220927287573 
C  2.101859931230819  3.482320389340061  -1.9153464614792952 
C  1.2809869980382964  2.8649778190056843  1.3002241548196354 
C  1.5322124441248333  2.340339896130417  2.714924566609962 
C  1.2744196145465918  3.380421754121686  3.786876466508241 
C  -0.18531795696907838  3.670038731546808  3.931233519306852 
H  3.911658990472074  2.802193207676254  0.8039276901890757 
H  6.065888416781003  2.079293194293605  0.9171215923047591 
H  6.616229825893445  -0.09234416914187737  0.19369757753394415 
H  4.959562732885571  -1.5013875869157725  -0.534663603318591 
H  -0.6641590793239083  1.8177672551662154  -2.031747048943338 
H  -1.0438129854234652  3.117885514851194  -3.8499597131873053 
H  0.6421282590875319  4.612292892662573  -4.364759498734741 
H  2.587800218629434  4.959589730725451  -3.1246778594367433 
H  2.7990220741817105  3.5929384168681855  -1.3578847153281048 
H  1.9459115565298708  3.6331153755044623  1.0691799040561192 
H  0.5722646587088476  3.161656411119978  1.2395935625704104 
H  0.917324446918862  1.6735009965886782  2.7767272603214104 
H  2.483256973828781  2.0189965691647904  2.7988211621002432 
H  1.6209837853876603  3.0928995464808615  4.567320869142176 
H  1.902055318308932  4.175142747038444  3.6270627725387956 
H  2.8669924313485495  -1.884735064922005  -1.0418734062913089 
H  -0.46955124106143864  4.323644295120094  3.1854393268649086 
H  -0.2706199303534369  4.021966121563695  4.622818001125709 
H  -0.7326611204135463  2.914185844901633  3.8149077045417514 
H  1.547694049747678  -1.5306302703540402  -2.733267288498926 
H  2.589037126143081  -0.5929524085034856  -2.8438333078663938 
H  1.5712211500754893  -0.12923111515769992  -2.258474519635333 
H  1.1285188473666934  -2.196166971044854  1.9358417892312982 
H  2.6173084049464928  -1.1729318317828137  1.9558068342034038 
H  2.669032032503658  -2.708546000965872  1.1456509666343506 
H  -0.017742716235161993  -3.0487779381909936  0.006962981086192019 
H  1.2869190376685018  -3.510360411118131  -0.6235429574960984 
H  0.2042382611265663  -2.473286531732678  -1.4062064131416194 
Br  -1.654629867976521  1.654629867976521  0.0 
C  -1.352040782177733  -1.3199206589279684  -0.4819701001757076 
C  -1.6380700204479186  -1.599217458033982  -1.8139382277462257 
H  -1.1579680913617836  -1.159339363685303  -2.503515938957912 
C  -2.63068216563725  -2.52632649780156  -2.142289956238523 
H  -2.8368222554424674  -2.694399528648736  -3.0538898079700485 
C  -3.3101544432602585  -3.1961573187854975  -1.1619874135498987 
H  -3.9960123560788676  -3.811990145619169  -1.3868663427944008 
C  -2.9974710358883443  -2.9701089012107795  0.12423560353005347 
H  -3.438659168087169  -3.468581175155742  0.8017084178296768 
C  -2.0389854250767776  -2.015940632791841  0.4912562833419403 
H  -1.8619130127668426  -1.8492165108145995  1.4101568590026907 

-Pd 0
lanl2dz
F 1 1.0
1.472 1.0
****
-P 0
6-31+g(d)
****
-N 0
6-31+g(d)
****
-C 0
6-31g(d)
****
-H 0
6-31g(d,p)
****
-Br 0
6-31+g(d)
****

-Pd 0
lanl2dz


