%chk=UHEQILUS_PN_Ni_gaussain.chk
%nprocshared=32
%mem=64GB
#p opt rwb97xd/gen pseudo=read

This Gaussian input file was generated using the DART python program. This file was generated on the 2023-10-04 at 09:55:46

0 1
Ni  0.0  0.0  0.0 
P  1.3397501455495344  -1.5116777260712686  1.7428066728293694e-15 
N  1.3397501455495346  1.5116777260712677  -1.8512712885755274e-16 
N  3.33563853826835  3.457928553386359  -0.19826686809876837 
N  3.1750302946795443  2.5284586103108335  -1.1331379164313782 
C  3.4681721909094  0.3229845648178724  0.009484472344418642 
C  3.005562709518667  -0.9185634633307654  0.4737388870004792 
C  3.830892758223351  -1.7062982790674492  1.2715324823504564 
C  5.107484835195228  -1.2936001826144572  1.5673175566810882 
C  5.5672707040503715  -0.07129719889444161  1.0987799799700388 
C  4.75195388343654  0.7233566577327786  0.3399807705795269 
C  2.543381934164036  1.2373337783848628  -0.7890241604694709 
C  1.4557149190365684  2.4445964796373385  0.9269384394634049 
C  2.584313917742317  3.355287039706554  0.8845429925235683 
C  2.7783273558308497  4.340225253931326  1.9465041029230017 
C  3.8727702151618906  5.193442978685441  1.9634038610495115 
C  4.012531345253226  6.1229640636139315  3.023056539614041 
C  3.0875962291643564  6.173181910110416  4.020558769646109 
C  2.029846804586213  5.3175459483624286  4.0160216154474595 
C  1.8412526196861116  4.386729190443443  2.9717596480278288 
C  0.6805345954849028  3.528132478581323  2.9382376451935905 
C  0.4693949108284472  2.6173051367123663  1.955605976221374 
C  3.888922826553212  2.6960421571415396  -2.3480391131410947 
C  4.184387028147736  1.6018356265612126  -3.157705682792759 
C  4.885778679750342  1.8022788955028588  -4.322533866259404 
C  5.287860014995726  3.052966857885965  -4.70097560628984 
C  5.001971205363986  4.138682147391145  -3.8800143169089027 
C  4.305548823414502  3.9752599174148915  -2.6876323853662254 
C  0.9827359930035903  -2.8257950248442123  1.1798702386057687 
C  0.5612517739182434  -2.448667985682477  2.452042860302672 
C  0.4349808611537438  -3.462482959977962  3.4528278644288712 
C  0.6308020169683795  -4.762801133685928  3.146906204423892 
C  0.9947713388356462  -5.1223683619553055  1.9201417278049304 
C  1.1806331149210338  -4.154497184940275  0.927250170335557 
C  1.6327398917812892  -2.3746218361166527  -1.5741832077433326 
C  0.60014251430888  -2.5939896446652626  -2.4359044855412826 
C  0.8223511729172918  -3.3726174233909707  -3.60904126965307 
C  2.082930657459153  -3.8871732785080195  -3.8536263982217265 
C  3.096522819854237  -3.646409021204383  -3.0062104963551426 
C  2.8792656298890797  -2.8862012532519823  -1.8683203597631743 
H  3.510703516744771  -2.5353389822450225  1.609849245334795 
H  5.673334232232835  -1.843398000407279  2.0962571462586097 
H  6.451145230637835  0.21401061345316647  1.3035280775516014 
H  5.073219558783921  1.5647281505214718  0.03493941770073444 
H  2.2919377870278455  0.7959181555363314  -1.5919276781951113 
H  4.5212062778742705  5.154712884968864  1.2697154638459869 
H  4.755902306811203  6.715045202711037  3.0383234396876055 
H  3.1825244734320983  6.806692104435294  4.72078620564583 
H  1.4055536828934156  5.3460698356013205  4.7300521302462615 
H  0.03973448378565081  3.6038302268688476  3.63467281644104 
H  -0.3265594954700264  2.0978078447591635  1.948381244575191 
H  3.905241456804777  0.7280505087286789  -2.908781562117406 
H  5.0941035630350235  1.0587299659825409  -4.876233805227798 
H  5.760167308984643  3.1799850256398945  -5.517132696012995 
H  5.288603780039883  5.006682609639233  -4.137874462475774 
H  4.123295344717952  4.716563748696698  -2.124868705630292 
H  0.36353470384241904  -1.5408103012494807  2.6523609698599175 
H  0.20959062714307186  -3.2184278722848814  4.343630882263741 
H  0.5077779170223126  -5.42645693987904  3.816049194926387 
H  1.128013884519716  -6.039828093008201  1.7170856618625978 
H  1.4498724138523882  -4.426746274744353  0.058482754388215555 
H  -0.26069099212444935  -2.231008930894971  -2.25403410413593 
H  0.11079591564102964  -3.538815053128458  -4.216518375157639 
H  2.231228114739542  -4.41156783452242  -4.631413460203755 
H  3.958772338827497  -3.993292590338402  -3.189670482442714 
H  3.605849938781752  -2.716407860405563  -1.280167024469833 
Br  -1.5839191898578664  1.5839191898578664  0.0 
C  -1.2937473829822488  -1.2398794889499034  -0.4598005675376139 
C  -1.601562203225019  -1.4938654694550033  -1.7919791134336869 
H  -1.1309417375171225  -1.0428217585005106  -2.480879663633267 
C  -2.60218398542082  -2.411889969420291  -2.121542410022959 
H  -2.8231586547736818  -2.5626138747145775  -3.03270050271447 
C  -3.2683208079706407  -3.09759503004543  -1.143064365570095 
H  -3.9596020908062854  -3.707191723557817  -1.3683280760515548 
C  -2.9347449854640226  -2.896087320001541  0.14198826503765638 
H  -3.3668350933519986  -3.405606940434718  0.8171022443470677 
C  -1.9675509241539992  -1.9516175659140573  0.5112421903797603 
H  -1.7755298364628027  -1.8022912010877177  1.4301324877763764 

-Ni 0
lanl2dz
F 1 1.0
3.130 1.0
****
-P 0
6-31+g(d)
****
-N 0
6-31+g(d)
****
-C 0
6-31g(d)
****
-H 0
6-31g(d,p)
****
-Br 0
6-31+g(d)
****

-Ni 0
lanl2dz


