%chk=UGIWEVUT_PN_Ni_gaussain.chk
%nprocshared=32
%mem=64GB
#p opt rwb97xd/gen pseudo=read

This Gaussian input file was generated using the DART python program. This file was generated on the 2023-10-04 at 16:41:16

0 1
Ni  0.0  0.0  0.0 
P  1.4350663460272486  -1.421507855236825  1.0933238997477511e-15 
N  1.4350663460272493  1.4215078552368254  9.361385201372968e-16 
C  2.670393434768717  0.9620799156766912  -0.30025686032643933 
C  1.7376272146463148  -2.9781408044310096  0.968232116934523 
C  2.9698716150881825  -0.4474748452192183  0.11456326400244005 
H  3.304146178116417  -0.4617809779114025  1.0258619752270828 
H  3.648275152354466  -0.8277757440207477  -0.46488779259798096 
C  1.6501077875992431  -2.640409751288136  2.453002518590067 
H  2.3274768723081074  -1.9959438226440953  2.673794162221941 
H  1.7851529171540566  -3.4366405043087966  2.970289287150482 
H  0.7848465039200718  -2.273840039358414  2.6468529435616 
C  -0.0028727524326728204  -2.348103311707627  -2.1937748173337996 
H  -0.6791298784060926  -2.5247251883121495  -1.5808611674002382 
C  3.144026065693626  -3.4847392184651165  0.6003142746503998 
H  3.2177070114605346  -3.559023493160459  -0.3540655526531189 
H  3.2884356167018094  -4.345936548814056  0.9999124225158117 
H  3.8024380163216085  -2.866822668258181  0.9252026404787087 
C  -0.20270381881543864  -2.604546298397467  -3.5380140332049987 
H  -1.01563334253407  -2.94575550678358  -3.830812266770581 
C  1.2097369109885532  -1.825535794923668  -1.7574863753832095 
C  2.196105244865775  -1.5518215318848785  -2.698321856290156 
H  3.008268954933286  -1.1892239119694217  -2.4267049678589823 
C  1.1269685430500622  2.6913588225389145  -0.3232367625171716 
H  0.2794426473086671  3.0210562619680608  -0.13130507028886737 
C  3.599882288491239  1.7424002571462063  -0.9462711987853495 
H  4.439474084794206  1.398688399909511  -1.1520197705317121 
C  0.803243933202636  -2.353488227430604  -4.43869078721402 
H  0.676251508679454  -2.554483437515038  -5.3381853951116085 
C  1.9730297853311072  -1.8185482746202055  -4.033139684333853 
H  2.634783775591596  -1.6265385337000426  -4.65899638979136 
C  0.7122003145640525  -4.047959000930978  0.6089033830079649 
H  -0.1722649863867145  -3.7047233457761104  0.7513391455274296 
H  0.8494850196943301  -4.8210621610376165  1.1605424258343622 
H  0.8158884232865622  -4.29183882102683  -0.31465305785506215 
C  2.0533478795648876  3.513568774242121  -0.9369295685680379 
H  1.837177411003108  4.400561238163423  -1.1142471014535347 
C  3.2754760221449857  3.03281175451665  -1.2825167516324611 
H  3.881779544761696  3.5696478945271903  -1.7409131927630146 
Br  -1.5839191898578664  1.5839191898578664  0.0 
C  -1.2937473829822488  -1.2398794889499034  -0.4598005675376139 
C  -1.601562203225019  -1.4938654694550033  -1.7919791134336869 
H  -1.1309417375171225  -1.0428217585005106  -2.480879663633267 
C  -2.60218398542082  -2.411889969420291  -2.121542410022959 
H  -2.8231586547736818  -2.5626138747145775  -3.03270050271447 
C  -3.2683208079706407  -3.09759503004543  -1.143064365570095 
H  -3.9596020908062854  -3.707191723557817  -1.3683280760515548 
C  -2.9347449854640226  -2.896087320001541  0.14198826503765638 
H  -3.3668350933519986  -3.405606940434718  0.8171022443470677 
C  -1.9675509241539992  -1.9516175659140573  0.5112421903797603 
H  -1.7755298364628027  -1.8022912010877177  1.4301324877763764 

-Ni 0
lanl2dz
F 1 1.0
3.130 1.0
****
-H 0
6-31g(d,p)
****
-P 0
6-31+g(d)
****
-N 0
6-31+g(d)
****
-C 0
6-31g(d)
****
-Br 0
6-31+g(d)
****

-Ni 0
lanl2dz


