%chk=XIGAGOPO_PN_Pd_gaussain.chk
%nprocshared=32
%mem=64GB
#p opt rwb97xd/gen pseudo=read

This Gaussian input file was generated using the DART python program. This file was generated on the 2023-08-11 at 15:55:49

0 0
Pd  0.0  0.0  0.0 
P  1.5668422910427193  -1.4272719555151365  -2.014791326279449e-15 
N  -0.06448419613318057  -3.8391563351514977  -0.5610541163778412 
N  1.5668422910427195  1.4272719555151356  -1.0629688228835647e-15 
C  3.051493075900476  -0.449188560402007  -0.43431664626776983 
H  3.7946090980602345  -0.7476348574472387  0.1654492625578858 
C  3.388238423447852  -0.9069492677958493  -1.841640168302243 
C  4.239273448437742  -0.2774238143403388  -2.6775701113549655 
H  4.608485037375049  0.555965015590599  -2.409959964423397 
C  4.613913827885379  -0.8166463269288582  -3.9608791146760782 
H  5.519488100733362  -1.2099036054952395  -3.891835293732897 
H  4.656130981153628  -0.07793968036025424  -4.618942092122216 
C  3.6519572534623994  -1.8840709435991494  -4.478322731556893 
H  2.842384615253246  -1.439588501028468  -4.835023603029723 
H  4.082228442298147  -2.368578634882422  -5.225259884967588 
C  3.237495030499635  -2.878317989172063  -3.427524878444203 
H  4.001908173013732  -3.4743512130526244  -3.224096380975735 
H  2.501509910272546  -3.4379435264872114  -3.7803914407437067 
C  2.7828198857002273  -2.1999431277739454  -2.1574037542498377 
C  1.8606811418807159  -2.6691924830996943  -1.256149056801116 
C  1.0907332626344735  -3.922683251335438  -1.2364557281846524 
C  1.5427337353179305  -5.113166297284969  -1.7828251453381703 
H  2.4123433695920693  -5.178857639175141  -2.1601487088460676 
C  0.6900075392308267  -6.205706498873384  -1.7642743388871571 
H  0.9298589166580753  -7.006083060316924  -2.2166895537485445 
C  -0.4836652415749687  -6.128248860493529  -1.0996149314819363 
H  -1.0546363937078493  -6.884394720313552  -1.0346128383687767 
C  -0.8362874622401688  -4.9273165165371475  -0.5154904458347591 
H  -1.668313679466483  -4.872328478205187  -0.058776542511808375 
C  2.8353514186076962  0.998560344083553  -0.19242275725113 
C  3.908773454588982  1.8802904867778993  -0.12331539053796726 
H  4.79366573488531  1.5636982436150246  -0.2649795844653044 
C  3.6946456025811574  3.18471507650372  0.14384795409064105 
H  4.425356879535872  3.792332021297534  0.16690393228866648 
C  2.447955984488579  3.622788057328411  0.37554823378744706 
H  2.296649683186468  4.537382844226511  0.5803671512855526 
C  1.3645755784844107  2.72519656465621  0.31355131314801493 
H  0.48481738505216554  3.036511786175876  0.4956780106391293 
C  1.8349198900590715  -2.108188620516962  1.620839013051107 
C  1.012757820801648  -1.8402056768866049  2.6790056983127433 
H  0.2275797485223383  -1.3284006826265224  2.5221624241113805 
C  1.2627301064738823  -2.2715394620290477  3.960309332191353 
H  0.6713135797785259  -2.0553351753774356  4.671846582365264 
C  2.4340333445425957  -3.0555447916903664  4.193606669408077 
H  2.631376187897328  -3.3915744026882915  5.059633881861153 
C  3.231939710613033  -3.3027135170596504  3.1788584039828054 
H  4.0271823143751515  -3.7960979854357837  3.3425016364333042 
C  2.980550488181687  -2.8870113183950266  1.901737567542169 
H  3.578613883736092  -3.1223104733334344  1.200190069090914 
Br  -1.654629867976521  1.654629867976521  0.0 
C  -1.352040782177733  -1.3199206589279684  -0.4819701001757076 
C  -1.6380700204479186  -1.599217458033982  -1.8139382277462257 
H  -1.1579680913617836  -1.159339363685303  -2.503515938957912 
C  -2.63068216563725  -2.52632649780156  -2.142289956238523 
H  -2.8368222554424674  -2.694399528648736  -3.0538898079700485 
C  -3.3101544432602585  -3.1961573187854975  -1.1619874135498987 
H  -3.9960123560788676  -3.811990145619169  -1.3868663427944008 
C  -2.9974710358883443  -2.9701089012107795  0.12423560353005347 
H  -3.438659168087169  -3.468581175155742  0.8017084178296768 
C  -2.0389854250767776  -2.015940632791841  0.4912562833419403 
H  -1.8619130127668426  -1.8492165108145995  1.4101568590026907 

-Pd 0
lanl2dz
F 1 1.0
1.472 1.0
****
-P 0
6-31+g(d)
****
-H 0
6-31g(d,p)
****
-N 0
6-31+g(d)
****
-Br 0
6-31+g(d)
****
-C 0
6-31g(d)
****

-Pd 0
lanl2dz
