%chk=VACUPIPE_PN_Ni_gaussain.chk
%nprocshared=32
%mem=64GB
#p opt rwb97xd/gen pseudo=read

This Gaussian input file was generated using the DART python program. This file was generated on the 2023-08-11 at 15:55:49

0 0
Ni  0.0  0.0  0.0 
P  1.4350663460272486  -1.4215078552368254  9.17804001807961e-16 
N  1.4350663460272493  1.4215078552368254  9.361385201372968e-16 
C  2.706337649603041  0.962079915676691  0.007514722634161745 
C  1.4944033146774032  -2.9781408044310105  1.0126675839753352 
C  2.8965659772693986  -0.4474748452192187  0.4824632455173753 
H  3.0004480455014715  -0.4617809779114029  1.447560826318011 
H  3.6949999281893966  -0.827775744020748  0.08434503142885551 
C  1.0502851185487165  -2.640409751288137  2.4321610935097806 
H  1.654119113593222  -1.995943822644096  2.8102646947166208 
H  1.0561758349913781  -3.4366405043087975  2.9667526080364746 
H  0.16382913061081927  -2.273840039358415  2.410927682459777 
C  0.5705623464746352  -2.3481033117076278  -2.4764792821271926 
H  -0.2338842847519007  -2.524725188312151  -2.0453731928487087 
C  2.9480334911183963  -3.4847392184651174  0.9959171500009245 
H  3.250411174847352  -3.55902349316046  0.08771151639380358 
H  2.9914819198853557  -4.345936548814057  1.418581357425134 
H  3.5082901836223073  -2.866822668258182  1.4704392100623216 
C  0.7018680160292339  -2.604546298397468  -3.829132358758636 
H  -0.016079722906115146  -2.945755506783581  -4.309898684815429 
C  1.6416045936283132  -1.8255357949236688  -1.7597936430815837 
C  2.8262822755117907  -1.551821531884879  -2.434058192243353 
H  3.5486111799006013  -1.1892239119694221  -1.9740293019374093 
C  1.2143184148391146  2.6913588225389145  -0.38817085377203486 
H  0.3455351814834795  3.021056261968061  -0.40697542433355616 
C  3.764501725335725  1.7424002571462065  -0.39444652365421895 
H  4.628929141598685  1.3986883999095112  -0.3909678446155613 
C  1.895828248321736  -2.353488227430605  -4.459694376887289 
H  1.99021548216173  -2.5544834375150387  -5.363192398806069 
C  2.9327547697288106  -1.8185482746202064  -3.783193064183553 
H  3.7262602788826937  -1.6265385337000433  -4.230366371005687 
C  0.5863654643740823  -4.0479590009309785  0.4159392296514391 
H  -0.3062857668477532  -3.7047233457761113  0.3401725190947983 
H  0.5861186641177029  -4.821062161037618  0.9844044114548319 
H  0.9104021180000402  -4.291838821026831  -0.45509921407933224 
C  2.2616460529255478  3.5135687742421213  -0.7595229155954856 
H  2.094793764811689  4.400561238163423  -0.9838697294752207 
C  3.531076873054533  3.0328117545166506  -0.7991851254599774 
H  4.230266725850055  3.569647894527191  -1.0972871357288898 
Br  -1.5839191898578664  1.5839191898578664  0.0 
C  -1.2937473829822488  -1.2398794889499034  -0.4598005675376139 
C  -1.601562203225019  -1.4938654694550033  -1.7919791134336869 
H  -1.1309417375171225  -1.0428217585005106  -2.480879663633267 
C  -2.60218398542082  -2.411889969420291  -2.121542410022959 
H  -2.8231586547736818  -2.5626138747145775  -3.03270050271447 
C  -3.2683208079706407  -3.09759503004543  -1.143064365570095 
H  -3.9596020908062854  -3.707191723557817  -1.3683280760515548 
C  -2.9347449854640226  -2.896087320001541  0.14198826503765638 
H  -3.3668350933519986  -3.405606940434718  0.8171022443470677 
C  -1.9675509241539992  -1.9516175659140573  0.5112421903797603 
H  -1.7755298364628027  -1.8022912010877177  1.4301324877763764 

-Ni 0
lanl2dz
F 1 1.0
3.130 1.0
****
-P 0
6-31+g(d)
****
-H 0
6-31g(d,p)
****
-N 0
6-31+g(d)
****
-Br 0
6-31+g(d)
****
-C 0
6-31g(d)
****

-Ni 0
lanl2dz
