%chk=EWAYOVOT_PN_Ni_gaussain.chk
%nprocshared=32
%mem=64GB
#p opt rwb97xd/gen pseudo=read

This Gaussian input file was generated using the DART python program. This file was generated on the 2023-08-11 at 15:55:49

0 0
Ni  0.0  0.0  0.0 
P  1.4255309624838068  1.4310700454554972  1.9345099523991926e-15 
N  1.425530962483804  -1.4310700454554977  -1.7763568394002505e-15 
C  2.3249159104485804  -0.9457075978200882  1.0303216923853395 
C  3.0827618312573053  -1.766337649248638  1.8502588174174837 
H  2.9849736602038908  -2.689799533030409  1.8044927513395534 
C  3.9859265012620395  -1.2087400372142008  2.7371494994684262 
H  4.498224119180666  -1.7592441075787297  3.281888885952463 
C  4.128093717346491  0.16611107244881884  2.817290805479488 
H  4.753322668392801  0.5338574428457274  3.399905408655076 
C  3.3525353163863407  0.9839917930444755  2.043690266714108 
H  3.4320948320108817  1.9082021202748418  2.1224527864448124 
C  2.4384305773885373  0.43738010028766383  1.133481470072734 
C  1.6065732288202583  -2.605494791705463  -0.48846832363570214 
H  2.231877972265547  -3.150031586025664  -0.0677831236864821 
C  0.9112994920353878  -3.1581704853318033  -1.6522042595816084 
C  0.521502881951374  -2.372395845179873  -2.728026720613688 
H  0.6617599061699218  -1.4529514167408752  -2.7060845199527614 
C  -0.07632928560840391  -2.9512269880931754  -3.8303901622356045 
H  -0.33789885128072084  -2.4228953020230164  -4.551035117680559 
C  -0.28405319596613854  -4.309599313174765  -3.8644608757317065 
H  -0.7206889155269041  -4.690730416248336  -4.590906428181139 
C  0.14421004434055984  -5.103958218673464  -2.84215447535218 
H  0.030018746128698925  -6.024456033705793  -2.89322824487626 
C  0.7513688454619463  -4.542443135919964  -1.7259209952678223 
H  1.047817895893145  -5.085681513711988  -1.033656879924304 
C  2.545190517315307  2.008584219289626  -1.2906780505979292 
C  2.217839978051614  1.831809884725537  -2.6242357430444283 
H  1.4265419186126653  1.4017522666834314  -2.8581274194506654 
C  3.065517287073383  2.2917988573760524  -3.6046107400785017 
H  2.8517484473445176  2.1620876908335966  -4.499929290336011 
C  4.237131941123246  2.9508473316244275  -3.2600246390724155 
H  4.791271095875938  3.287022522019719  -3.9272847221979292 
C  4.578222798014973  3.1069171974631105  -1.958394812922908 
H  5.375943000473414  3.530819383052434  -1.7340888931564276 
C  3.744322632192106  2.6400504482626226  -0.965776184278653 
H  3.9837772816411157  2.7445365183014974  -0.07312103136399295 
C  0.8506367872822933  2.8591304688357657  0.9622055157264336 
C  -0.005976793946878667  2.643829749644253  2.0150743170351966 
H  -0.26352977694884294  1.776265569999345  2.2273194939977308 
C  -0.49203311606912825  3.705302068783253  2.76597546061317 
H  -1.0793014633405797  3.5504366932526925  3.470816225435176 
C  -0.1030829921496097  4.970581634063837  2.463857465805889 
H  -0.4092076713784012  5.681914236708028  2.979884935212823 
C  0.7316883590828336  5.209417459106357  1.4135077479319533 
H  0.9746077690952879  6.081717780089367  1.2031380727120267 
C  1.2192163007513046  4.159497289390442  0.6625599179755558 
H  1.7982901390466381  4.325711071696457  -0.04529476228971843 
Br  -1.5839191898578664  1.5839191898578664  0.0 
C  -1.2937473829822488  -1.2398794889499034  -0.4598005675376139 
C  -1.601562203225019  -1.4938654694550033  -1.7919791134336869 
H  -1.1309417375171225  -1.0428217585005106  -2.480879663633267 
C  -2.60218398542082  -2.411889969420291  -2.121542410022959 
H  -2.8231586547736818  -2.5626138747145775  -3.03270050271447 
C  -3.2683208079706407  -3.09759503004543  -1.143064365570095 
H  -3.9596020908062854  -3.707191723557817  -1.3683280760515548 
C  -2.9347449854640226  -2.896087320001541  0.14198826503765638 
H  -3.3668350933519986  -3.405606940434718  0.8171022443470677 
C  -1.9675509241539992  -1.9516175659140573  0.5112421903797603 
H  -1.7755298364628027  -1.8022912010877177  1.4301324877763764 

-Ni 0
lanl2dz
F 1 1.0
3.130 1.0
****
-P 0
6-31+g(d)
****
-H 0
6-31g(d,p)
****
-N 0
6-31+g(d)
****
-Br 0
6-31+g(d)
****
-C 0
6-31g(d)
****

-Ni 0
lanl2dz
