%chk=WUJOMIJO_PN_Ni_gaussain.chk
%nprocshared=32
%mem=64GB
#p opt rwb97xd/gen pseudo=read

This Gaussian input file was generated using the DART python program. This file was generated on the 2023-10-04 at 09:55:46

0 1
Ni  0.0  0.0  0.0 
C  2.4291785230950538  0.3030658105118835  0.43639473020589314 
C  1.9458938192331847  2.535450598656002  0.11547917639789929 
H  1.355558135387823  3.213378850285834  -0.19236603798907762 
C  3.1610181981961127  2.906674905609528  0.6735929171146616 
H  3.39903181961807  3.8234060447349703  0.7424957078809213 
C  4.01115872008793  1.9313060796820287  1.123140463483595 
H  4.848960629866848  2.163405974686794  1.508469736585947 
C  3.635426293407848  0.5965534326720108  1.0061219827173016 
H  4.205456328439889  -0.09721462128044456  1.3176225067560354 
C  1.7256550815118552  -2.3267531050551487  1.4537143694878667 
C  1.4943635975831469  -1.7565530347554876  2.7040113859172976 
H  1.2992219714650441  -0.8293293041564546  2.7734592020816153 
C  1.5505400054034997  -2.541883565984093  3.8458265626970745 
H  1.3908460511490897  -2.152835679983802  4.697741325671223 
C  1.8352340407255658  -3.8838260545634364  3.7435187741493805 
H  1.8908012132698104  -4.417129377559549  4.529952360039982 
C  2.0401929341756126  -4.4558142226207105  2.5135364663098425 
H  2.2167605562120816  -5.385932460939117  2.446718896795159 
C  1.987844808725192  -3.6801999203929396  1.3698480174997953 
H  2.1335524206909917  -4.081754288803508  0.5221676526064989 
C  2.6009486358324327  -1.9900118306288723  -1.3112254631057452 
C  3.848889523908312  -2.5687035579488295  -1.0524849084958523 
H  4.164572203971566  -2.65279877667842  -0.16047840084306575 
C  4.619843324660108  -3.0199150936354684  -2.11709085774171 
H  5.469065219115035  -3.412532266876113  -1.9514077286821494 
C  4.163982633359511  -2.9020686716463056  -3.415608228034224 
H  4.694691768684706  -3.2204313031918588  -4.135894079983147 
C  2.9466303646537297  -2.3283989113749266  -3.664175965335513 
H  2.641515182303653  -2.238054070060368  -4.559223888715807 
C  2.154093508540196  -1.8803004472732754  -2.6225771998929592 
H  1.3032969445786091  -1.4966103584686499  -2.8018892533201107 
N  1.577542581834164  1.2615305792964358  0.0 
P  1.577542581834164  -1.2615305792964358  0.0 
Br  -1.5839191898578664  1.5839191898578664  0.0 
C  -1.2937473829822488  -1.2398794889499034  -0.4598005675376139 
C  -1.601562203225019  -1.4938654694550033  -1.7919791134336869 
H  -1.1309417375171225  -1.0428217585005106  -2.480879663633267 
C  -2.60218398542082  -2.411889969420291  -2.121542410022959 
H  -2.8231586547736818  -2.5626138747145775  -3.03270050271447 
C  -3.2683208079706407  -3.09759503004543  -1.143064365570095 
H  -3.9596020908062854  -3.707191723557817  -1.3683280760515548 
C  -2.9347449854640226  -2.896087320001541  0.14198826503765638 
H  -3.3668350933519986  -3.405606940434718  0.8171022443470677 
C  -1.9675509241539992  -1.9516175659140573  0.5112421903797603 
H  -1.7755298364628027  -1.8022912010877177  1.4301324877763764 

-Ni 0
lanl2dz
F 1 1.0
3.130 1.0
****
-P 0
6-31+g(d)
****
-N 0
6-31+g(d)
****
-C 0
6-31g(d)
****
-H 0
6-31g(d,p)
****
-Br 0
6-31+g(d)
****

-Ni 0
lanl2dz


