%chk=AXAMAFAP_PN_Pd_gaussain.chk
%nprocshared=32
%mem=64GB
#p opt rwb97xd/gen pseudo=read

This Gaussian input file was generated using the DART python program. This file was generated on the 2023-10-04 at 16:41:16

0 1
Pd  0.0  0.0  0.0 
C  1.310966693836199  -2.791253288052884  -0.21020715990518227 
H  0.44857495613132947  -3.141383296776869  -0.01976935449526707 
C  2.2747892349719745  -3.653066130012035  -0.687096355246077 
H  2.076129773319482  -4.5720947630720135  -0.826082685192048 
C  3.53542978730332  -3.154542881242926  -0.9602146780559221 
H  4.2074643538691365  -3.7135291520483342  -1.3314124560553906 
C  3.7980280588823607  -1.8237964263756894  -0.681253694006198 
H  4.672246716953721  -1.4735455571017242  -0.812384759939286 
C  2.7813534871300387  -1.0012543516572892  -0.20973196548225087 
C  3.0539832244072427  0.434690418352375  0.14230038222753089 
H  3.750795757134817  0.7951190990113656  -0.46172722508212183 
H  3.3982815142341343  0.48487757522336716  1.0696350558527024 
C  1.5712782341593399  2.025108410026769  -1.8143461299591819 
C  1.7019866345850156  0.7353986476824349  -2.650746735513671 
H  1.0033427749594201  0.10062717762666155  -2.3852119200737736 
H  2.5827281844466596  0.3335685501384117  -2.4977272757868345 
H  1.6022714451130031  0.9505761491942993  -3.602107126654537 
C  2.75378850106547  2.929818299015173  -2.1918725070883074 
H  2.7998462075734367  3.01755811541403  -3.1665712617245885 
H  3.5873725101929614  2.534749868750357  -1.858636576950149 
H  2.6290976691442567  3.8150015155165837  -1.7895393992547413 
C  0.25575813017095617  2.716254907027676  -2.212156581915675 
H  0.25243820890905067  2.8830246702464097  -3.178730228462488 
H  0.176108627776578  3.5682871671463783  -1.7337060468701484 
H  -0.5016922869488702  2.1388440229563765  -1.9797711551759407 
C  1.965594071427545  2.936095413563182  1.1173867074370487 
C  3.4124538121582173  3.457931149579931  0.9592683490194734 
H  4.038773008480057  2.706952991421332  1.020484770733671 
H  3.6061889638202094  4.1047415179326805  1.6699042110486166 
H  3.5085892641374152  3.892820816320601  0.08541576841164908 
C  0.9906212768785952  4.090150121399107  0.8663554719081301 
H  1.1718075017841563  4.485321487012685  -0.011319749175152933 
H  1.1048261290035426  4.7706369386354766  1.5618068600860864 
H  0.07122982430226665  3.7509602390598458  0.8893741740494547 
C  1.813970470912909  2.484797544960155  2.582586027516532 
H  0.8919617186489956  2.1926098055604135  2.7410167243312897 
H  2.026841772455365  3.2321728909682563  3.178689610091659 
H  2.4272457580815736  1.7403098493972744  2.7604928101406956 
N  1.528974530526915  -1.4677659503476705  2.4498622828363515e-16 
P  1.5289745305269147  1.4677659503476705  -2.907717897615904e-16 
Br  -1.654629867976521  1.654629867976521  0.0 
C  -1.352040782177733  -1.3199206589279684  -0.4819701001757076 
C  -1.6380700204479186  -1.599217458033982  -1.8139382277462257 
H  -1.1579680913617836  -1.159339363685303  -2.503515938957912 
C  -2.63068216563725  -2.52632649780156  -2.142289956238523 
H  -2.8368222554424674  -2.694399528648736  -3.0538898079700485 
C  -3.3101544432602585  -3.1961573187854975  -1.1619874135498987 
H  -3.9960123560788676  -3.811990145619169  -1.3868663427944008 
C  -2.9974710358883443  -2.9701089012107795  0.12423560353005347 
H  -3.438659168087169  -3.468581175155742  0.8017084178296768 
C  -2.0389854250767776  -2.015940632791841  0.4912562833419403 
H  -1.8619130127668426  -1.8492165108145995  1.4101568590026907 

-Pd 0
lanl2dz
F 1 1.0
1.472 1.0
****
-H 0
6-31g(d,p)
****
-P 0
6-31+g(d)
****
-N 0
6-31+g(d)
****
-C 0
6-31g(d)
****
-Br 0
6-31+g(d)
****

-Pd 0
lanl2dz


