%chk=ADIXUDUR_PN_Pd_gaussain.chk
%nprocshared=32
%mem=64GB
#p opt rwb97xd/gen pseudo=read

This Gaussian input file was generated using the DART python program. This file was generated on the 2023-10-04 at 09:55:46

0 1
Pd  0.0  0.0  0.0 
P  1.5799846992930027  -1.4127095773725038  -2.3882467389131803e-15 
N  1.5799846992930024  1.4127095773725038  -3.95051631130436e-16 
N  1.6035375199035546  2.7877561977917757  -0.00545034997281613 
H  0.8972839184439713  3.2382794760325497  -0.011241393796008243 
C  2.8328122807840934  3.1662356096709336  -0.20083337647650598 
C  3.668973426030531  2.009794571705762  -0.36878543776240363 
H  4.601877210707429  1.9967312639349428  -0.5452202940850976 
C  2.8482798078085887  0.9435014112943485  -0.22411145575593153 
C  3.1617252249951022  4.627943446210579  -0.21581255299041055 
H  2.3465296009318113  5.147651942393871  -0.05832266917886703 
H  3.540170860897394  4.868839370929198  -1.0860687187947646 
H  3.814427524408365  4.823254396471975  0.4903278374764179 
C  3.13042670211043  -0.5579599321935906  -0.24414702530660518 
H  3.766600233048192  -0.7946976278649306  0.4774603416059085 
H  3.530055717418329  -0.817387231243721  -1.1111372770577892 
C  0.8444598775608378  -3.8722017445186374  -1.227533387066404 
H  0.5636437327266968  -4.131616804676728  -0.3579129069926636 
C  0.6911566126701396  -4.792605195324397  -2.323174727432258 
H  0.31816284029333874  -5.646822544260653  -2.14237058880585 
C  1.0412027238180093  -4.513989642415029  -3.5753901536857744 
H  0.9386114139790727  -5.142244157154525  -4.281095657316727 
C  1.5556601617353916  -3.279221557070589  -3.7788547943148463 
H  1.815477522116209  -3.0199651919504524  -4.656532312763081 
C  1.7164386027469374  -2.3379722151689593  -2.67618205534118 
H  2.0714373920301132  -1.4767557560416404  -2.8629931099811214 
C  1.3870113234735788  -2.632414970185631  -1.411897517869998 
C  1.0869403943468938  -2.2549888816673636  2.5091957729353953 
H  0.3295675283972159  -1.6812765822806601  2.4995947596768016 
C  1.3955128017389309  -2.978491465900564  3.593960470924864 
H  0.8596911735179755  -2.9194990506618965  4.374721437978788 
C  2.5354830531242776  -3.8410784544211922  3.5679110334770443 
H  2.739964930509328  -4.3456003755690835  4.345545936823296 
C  3.3448856028238954  -3.97035293724849  2.4735505441365624 
H  4.094480380812757  -4.553379543135811  2.4814559624887313 
C  3.042449560194493  -3.2462466691345693  1.396510520462033 
H  3.5842950519991685  -3.3106938644097186  0.6185882929661664 
C  1.9119343073117707  -2.375557534084086  1.4005395531696256 
Br  -1.654629867976521  1.654629867976521  0.0 
C  -1.352040782177733  -1.3199206589279684  -0.4819701001757076 
C  -1.6380700204479186  -1.599217458033982  -1.8139382277462257 
H  -1.1579680913617836  -1.159339363685303  -2.503515938957912 
C  -2.63068216563725  -2.52632649780156  -2.142289956238523 
H  -2.8368222554424674  -2.694399528648736  -3.0538898079700485 
C  -3.3101544432602585  -3.1961573187854975  -1.1619874135498987 
H  -3.9960123560788676  -3.811990145619169  -1.3868663427944008 
C  -2.9974710358883443  -2.9701089012107795  0.12423560353005347 
H  -3.438659168087169  -3.468581175155742  0.8017084178296768 
C  -2.0389854250767776  -2.015940632791841  0.4912562833419403 
H  -1.8619130127668426  -1.8492165108145995  1.4101568590026907 

-Pd 0
lanl2dz
F 1 1.0
1.472 1.0
****
-P 0
6-31+g(d)
****
-N 0
6-31+g(d)
****
-C 0
6-31g(d)
****
-H 0
6-31g(d,p)
****
-Br 0
6-31+g(d)
****

-Pd 0
lanl2dz


