%chk=JOYUNIHO_PN_Ni_gaussain.chk
%nprocshared=32
%mem=64GB
#p opt rwb97xd/gen pseudo=read

This Gaussian input file was generated using the DART python program. This file was generated on the 2023-08-11 at 15:55:49

0 0
Ni  0.0  0.0  0.0 
P  1.2279884975031314  -1.6037905879509329  2.5249511146862175e-15 
C  4.75592708231504  0.3063959869148663  0.36264224932868083 
C  3.2911887516630696  0.38712956957382727  0.11572250254854123 
C  2.865507888807899  -0.9360187117184445  -0.4959143821405724 
C  4.17161503322756  -1.7762150129834482  -0.35220188220890625 
C  5.061627460318958  -1.2592658450379852  -1.5048756640671501 
C  5.391132721882465  0.18800897839489358  -1.0665870855491963 
C  4.898805006056908  -1.1365408761556886  0.9009180969192316 
C  4.162486035580703  -1.2912451261145297  2.2337789781673796 
C  6.306662887454297  -1.6433169391318503  1.0669602234465512 
C  5.360481559219685  1.4331112535936137  1.1824438547721032 
N  2.651982728636685  1.4632379548992565  0.37825755384478416 
N  1.227988497503132  1.6037905879509333  -3.0743000346619185e-16 
C  0.7472498946365274  2.634779317042155  0.9785483565980577 
C  1.230888803847746  2.1936979967534493  -1.3675829727161168 
C  1.3841272775374815  -2.6736311350214663  1.4348351979280618 
C  2.138504021845273  -3.845835457782785  1.3780189735967654 
C  2.3310926010486153  -4.608698389634228  2.5302903983780625 
C  1.7673332647074516  -4.2002653155650576  3.7386713336359096 
C  1.011101184511613  -3.0300189167519114  3.7953681320247914 
C  0.8195556327723412  -2.2660414441284815  2.6445423533194035 
C  0.7616071324323718  -2.6620513688478002  -1.3965289799822782 
C  0.9243947983139935  -2.1868161506552624  -2.697588115158831 
C  0.4775731451523848  -2.947450655661673  -3.7793567457169512 
C  -0.13072678557905704  -4.182328441377042  -3.558739002507488 
C  -0.2932632435222575  -4.658573616862115  -2.2570824722866676 
C  0.15454011705080983  -3.8980928725784896  -1.1759866033493354 
H  2.599915716559736  -0.9035368774993289  -1.4174417330565854 
H  4.043115370636483  -2.727640480537497  -0.3245802167352974 
H  5.857866512481066  -1.7875882122882925  -1.5999628244783113 
H  4.57701505198516  -1.2577272838202436  -2.332782824634286 
H  6.341460729716343  0.31827518744337324  -1.0352621385152183 
H  4.999221957922114  0.8300999831286766  -1.6626824426289102 
H  3.218675967163451  -1.119176333546929  2.2311587914279407 
H  4.585986940592703  -0.7402596254894106  2.8959957791887003 
H  4.319677588069497  -2.215214982985479  2.4381699256676153 
H  6.816528198912473  -1.5969447877058838  0.25461950198553146 
H  6.23692375599939  -2.5583570890275906  1.3491312134910525 
H  6.743588874697088  -1.1301850151869408  1.7483218383769235 
H  4.896756810575687  1.5431058759123462  2.0149603174057553 
H  5.219660656747513  2.206458122766002  0.6323600126460335 
H  6.2992589343072956  1.3238491832731463  1.3494048083298404 
H  -0.2039747433536172  2.7612028860063873  0.9416508053122012 
H  1.187847411598138  3.4725294261237947  0.8171312794935207 
H  0.9939733615249139  2.3072197129724055  1.847052206139473 
H  0.311017706770105  2.315986574497614  -1.6142787540227743 
H  1.6542515419215105  1.6040919988730524  -1.9972315804920437 
H  1.6792622951658398  3.04296241458508  -1.3725950469696606 
H  2.5279549700568387  -4.125944490330457  0.5464564510993009 
H  2.851211565598452  -5.4150067628814975  2.4907269057749306 
H  1.8990443085097957  -4.7253501154926685  4.532116009606138 
H  0.6235055721880958  -2.7479519602560667  4.627050080464631 
H  0.300500184584901  -1.4598996449975623  2.6833770208333307 
H  1.34305779973613  -1.335859772526328  -2.848546631851016 
H  0.5890756137777252  -2.6187248083092567  -4.674595572384387 
H  -0.4376643557495612  -4.705503652844035  -4.3022996833697125 
H  -0.7107269108956893  -5.508459967511843  -2.1046184194662647 
H  0.04393221089693333  -4.224791198367661  -0.2799058061983077 
Br  -1.5839191898578664  1.5839191898578664  0.0 
C  -1.2937473829822488  -1.2398794889499034  -0.4598005675376139 
C  -1.601562203225019  -1.4938654694550033  -1.7919791134336869 
H  -1.1309417375171225  -1.0428217585005106  -2.480879663633267 
C  -2.60218398542082  -2.411889969420291  -2.121542410022959 
H  -2.8231586547736818  -2.5626138747145775  -3.03270050271447 
C  -3.2683208079706407  -3.09759503004543  -1.143064365570095 
H  -3.9596020908062854  -3.707191723557817  -1.3683280760515548 
C  -2.9347449854640226  -2.896087320001541  0.14198826503765638 
H  -3.3668350933519986  -3.405606940434718  0.8171022443470677 
C  -1.9675509241539992  -1.9516175659140573  0.5112421903797603 
H  -1.7755298364628027  -1.8022912010877177  1.4301324877763764 

-Ni 0
lanl2dz
F 1 1.0
3.130 1.0
****
-P 0
6-31+g(d)
****
-H 0
6-31g(d,p)
****
-N 0
6-31+g(d)
****
-Br 0
6-31+g(d)
****
-C 0
6-31g(d)
****

-Ni 0
lanl2dz
