%chk=REGAHEJI_PN_Ni_gaussain.chk
%nprocshared=32
%mem=64GB
#p opt rwb97xd/gen pseudo=read

This Gaussian input file was generated using the DART python program. This file was generated on the 2023-08-11 at 15:55:49

0 0
Ni  0.0  0.0  0.0 
P  1.4666599631475585  1.3888875233437732  2.46777784393789e-15 
N  1.4666599631475594  -1.3888875233437732  2.220446049250313e-16 
N  2.8516102782861754  0.4353732050556607  0.3184595883578246 
C  2.6484985298422545  -0.9322763152070667  0.2963040615263276 
C  1.3147519045384433  -2.8470637694116983  -0.25098636842041067 
H  2.2330643744511987  -3.239712379060861  -0.3007765978166505 
C  0.6487516470411112  -3.069386970398198  -1.6080696051147054 
H  1.218325904157333  -2.686980907219432  -2.323257838011912 
H  -0.22363475731547666  -2.60198482365192  -1.6289119828769216 
C  0.4350131306280449  -4.561692700821975  -1.867007249241436 
H  -0.044279212791670464  -4.6853601376108704  -2.724908470022311 
H  1.3123778393760803  -5.015385299689128  -1.9359153298754646 
C  -0.37680545615536665  -5.1842874973525  -0.7343834319542806 
H  -1.268872045544423  -4.758938881952937  -0.6984738862393254 
H  -0.5043972556723058  -6.150413718840539  -0.9130793939939204 
C  0.32209055516737806  -5.007594193628972  0.6090938554519787 
H  1.1802796579372892  -5.500499197449466  0.5999215549932104 
H  -0.24326703879165512  -5.390267506670496  1.3257237295422943 
C  0.5890677490506487  -3.5258094951493932  0.9086093396894489 
H  -0.27114924909616533  -3.063073723391061  1.0731033871031188 
H  1.1387995000894422  -3.4510758840718703  1.7291109541151377 
C  4.100871496780533  1.1613056675870035  0.7122965569238005 
H  3.914780638596688  2.117659701067099  0.48618478114299263 
C  4.358827404715929  1.1685868331457892  2.21912969107946 
H  4.666264163194116  0.27408284767619384  2.5127372003761996 
H  3.5227156396577786  1.3841429994789927  2.7030913274589157 
C  5.427386742869575  2.2162430583935153  2.533237800723727 
H  5.073978532213792  3.11710160811087  2.324973569415957 
H  5.63727880570155  2.1889100783199344  3.5005527908693637 
C  6.704446887930747  1.9829484974200557  1.7364373152089676 
H  7.136127221271485  1.1484503213477226  2.0497190956220743 
H  7.332144096846619  2.73044280315084  1.90110384738632 
C  6.432841185764714  1.8755175661947727  0.23698574961338714 
H  7.273740727154085  1.641231175446153  -0.2307957788816699 
H  6.13010023724879  2.753938931852055  -0.10334540154452476 
C  5.3727523090382965  0.8217510333394391  -0.07467380450766092 
H  5.700798190070287  -0.07647597139060291  0.18365675487632505 
H  5.178456588407748  0.8152484081461044  -1.0464053460407554 
C  3.8096797787109553  -1.8229139796753242  0.6359773573655603 
H  3.487430094024273  -2.606209611405702  1.1266283779814847 
H  4.448904564724533  -1.3301163099603586  1.1918955075184534 
H  4.25066047378022  -2.1134626441405864  -0.18959987109564624 
C  1.3231983426045961  2.5541080453798317  1.3705312832829555 
C  0.6940481147551543  2.098361698493448  2.535700845233836 
H  0.3549465892097392  1.2122498828749717  2.5766844467605283 
C  0.5659719477406  2.941705428862665  3.6312422035995553 
H  0.1542052894524888  2.628049094078115  4.427596171864735 
C  1.0422354529918114  4.245540307183319  3.558399471358027 
H  0.9378090471774734  4.828561823605689  4.300902809503548 
C  1.667390867764482  4.699331812547714  2.4114746364017208 
H  1.9918083461140066  5.591622400641114  2.3697619747595695 
C  1.8220928218088839  3.8540197118432102  1.3174606886764626 
H  2.2669215810806924  4.161936510584694  0.5367724538621279 
C  1.8394820335283377  2.3501780508773944  -1.4765742939355166 
C  2.7944957504704337  1.913782572616638  -2.393007448620587 
H  3.253395264194595  1.0936198734388385  -2.250318019505717 
C  3.0719075715745436  2.6838013120932755  -3.5187139078569816 
H  3.7294403160678247  2.3917141213153448  -4.137678157957564 
C  2.3986813656394546  3.871904169427074  -3.7434380187964456 
H  2.6152818236319026  4.405866432414758  -4.499562243578659 
C  1.406519129495179  4.282078870707759  -2.861503536196653 
H  0.9244908446208433  5.083620400377367  -3.0286930059488135 
C  1.1167484399856937  3.5232301538134028  -1.735062933071472 
H  0.42905334635938885  3.799152191097879  -1.1400822295666415 
Br  -1.5839191898578664  1.5839191898578664  0.0 
C  -1.2937473829822488  -1.2398794889499034  -0.4598005675376139 
C  -1.601562203225019  -1.4938654694550033  -1.7919791134336869 
H  -1.1309417375171225  -1.0428217585005106  -2.480879663633267 
C  -2.60218398542082  -2.411889969420291  -2.121542410022959 
H  -2.8231586547736818  -2.5626138747145775  -3.03270050271447 
C  -3.2683208079706407  -3.09759503004543  -1.143064365570095 
H  -3.9596020908062854  -3.707191723557817  -1.3683280760515548 
C  -2.9347449854640226  -2.896087320001541  0.14198826503765638 
H  -3.3668350933519986  -3.405606940434718  0.8171022443470677 
C  -1.9675509241539992  -1.9516175659140573  0.5112421903797603 
H  -1.7755298364628027  -1.8022912010877177  1.4301324877763764 

-Ni 0
lanl2dz
F 1 1.0
3.130 1.0
****
-P 0
6-31+g(d)
****
-H 0
6-31g(d,p)
****
-N 0
6-31+g(d)
****
-Br 0
6-31+g(d)
****
-C 0
6-31g(d)
****

-Ni 0
lanl2dz
