%chk=EMUCARON_PN_Pd_gaussain.chk
%nprocshared=32
%mem=64GB
#p opt rwb97xd/gen pseudo=read

This Gaussian input file was generated using the DART python program. This file was generated on the 2023-08-13 at 16:51:13

0 1
Pd  0.0  0.0  0.0 
P  1.4991070592189208  -1.4982583305291506  2.060020276073473e-16 
N  1.4991070592189208  1.4982583305291506  -1.8348372687783814e-16 
N  2.7900267090631816  0.8711426850795698  0.12399864869568666 
C  1.5806602380174983  2.5069000708799454  -1.0960869849833956 
H  2.2198055364622618  3.2085083306709947  -0.8481870913389209 
H  0.6973811673941772  2.9066884103103376  -1.2410702497221644 
H  1.8802821694125411  2.0696377499231704  -1.9206971115878486 
C  1.1683758357935625  2.1645154302960847  1.292665105455306 
H  1.167442359109144  1.4994915591135352  2.012146084619216 
H  0.28345287343472503  2.57965688976678  1.2295884907822672 
H  1.8392855059524256  2.8533743800310667  1.486570834760443 
C  1.8670275770556377  -2.950358879992886  -0.9822944094322726 
C  1.8113841779883124  -4.017032745530859  -0.15446516573613134 
C  1.4599983475684077  -3.7027196458441844  1.2678265882811341 
C  1.253777719192295  -2.4037541334597825  1.5362123928015807 
C  2.964409939456239  -0.4965946324738444  0.12095741054784398 
C  4.311610189968333  -0.7223139981593074  0.2584479301291168 
H  4.735856743755049  -1.5716931766822468  0.2924714909627563 
C  4.948983829155907  0.5195327095061693  0.34028611638232004 
H  5.884058727062139  0.6609150170052946  0.4338543718536529 
C  3.9978791879968765  1.4909432835998744  0.2636125348518908 
H  4.146987735049574  2.4276528792704273  0.30185367205439123 
C  2.154685263711549  -2.8706427572346596  -2.445139160279129 
H  2.2954155701943595  -3.772570070078461  -2.8006953487833033 
H  2.9603769332584977  -2.3321929294836066  -2.59014490712223 
H  1.3958870640875132  -2.4533280043247396  -2.904265318596296 
C  2.087296398291896  -5.429629543342436  -0.54399424488123 
H  2.3115374334480756  -5.46873658103153  -1.4968821594626245 
H  1.2927935521592284  -5.976719953786214  -0.3723314058986294 
H  2.8387993233946527  -5.77268900413547  -0.017075826221939108 
C  1.4094608433053488  -4.795025933520227  2.295687101466781 
H  1.124909926684873  -4.422007747262174  3.1561322063812303 
H  2.298268666797911  -5.1962710911478025  2.391620080044804 
H  0.7717535202536916  -5.482026021573448  2.0112781192929217 
C  0.9203393991645163  -1.7275026190482703  2.8219145029317843 
H  0.6397471841617599  -2.3975697460205825  3.479941876398058 
H  0.19282732434238037  -1.08845767233214  2.676284021697319 
H  1.7094240014415567  -1.2535789100779886  3.155584382491152 
Br  -1.654629867976521  1.654629867976521  0.0 
C  -1.352040782177733  -1.3199206589279684  -0.4819701001757076 
C  -1.6380700204479186  -1.599217458033982  -1.8139382277462257 
H  -1.1579680913617836  -1.159339363685303  -2.503515938957912 
C  -2.63068216563725  -2.52632649780156  -2.142289956238523 
H  -2.8368222554424674  -2.694399528648736  -3.0538898079700485 
C  -3.3101544432602585  -3.1961573187854975  -1.1619874135498987 
H  -3.9960123560788676  -3.811990145619169  -1.3868663427944008 
C  -2.9974710358883443  -2.9701089012107795  0.12423560353005347 
H  -3.438659168087169  -3.468581175155742  0.8017084178296768 
C  -2.0389854250767776  -2.015940632791841  0.4912562833419403 
H  -1.8619130127668426  -1.8492165108145995  1.4101568590026907 

-Pd 0
lanl2dz
F 1 1.0
1.472 1.0
****
-C 0
6-31g(d)
****
-N 0
6-31+g(d)
****
-H 0
6-31g(d,p)
****
-Br 0
6-31+g(d)
****
-P 0
6-31+g(d)
****

-Pd 0
lanl2dz


