%chk=KODIVENA_PN_Ni_gaussain.chk
%nprocshared=32
%mem=64GB
#p opt rwb97xd/gen pseudo=read

This Gaussian input file was generated using the DART python program. This file was generated on the 2023-10-04 at 16:41:16

0 1
Ni  0.0  0.0  0.0 
P  1.3795191399542088  1.4754751582117547  -4.592019159861581e-18 
N  1.3795191399542088  -1.4754751582117542  2.7755575615628914e-17 
C  2.6184856315815583  -1.4442655341501665  0.3165616085228945 
H  3.1370225650965384  -2.179091724862893  0.08005858946497693 
C  3.2935028191616755  -0.3406097077968382  1.024436359752094 
C  2.861335577422933  1.0032742125554335  0.963950627661411 
C  3.626626445910333  1.988239013156591  1.587006554674831 
H  3.3545262525246384  2.877112511094384  1.5437578619396632 
C  4.796898249535992  1.6583235501338378  2.2767701612077658 
H  5.282978202060278  2.32159722475544  2.7115595381570716 
C  5.234338794324315  0.34379681669110207  2.3145051163511345 
H  6.016552271497623  0.12380704716262247  2.765141064130803 
C  4.495267219096703  -0.6430721061071407  1.6735580468472175 
H  4.804894845948801  -1.5204553800952838  1.6759230448984312 
C  0.9428460378253831  -2.539392941756512  -0.956263730220082 
H  -0.03764192459550508  -2.555130539825017  -0.9458342741082595 
C  1.4267523908139879  -3.95572740077428  -0.6162889933114067 
H  1.136425443972528  -4.198606813555671  0.2766458614146825 
H  2.395770397702777  -3.9876052502509234  -0.6400428359069213 
C  0.8449919648146496  -4.939586604991168  -1.6405941251050646 
H  1.142946643905752  -5.838664198820515  -1.4311829757319867 
H  -0.12383782960411116  -4.9247726178641384  -1.5895688839795934 
C  1.2839626841390268  -4.575705354932909  -3.055013710458679 
H  0.885387216921975  -5.195129524776394  -3.6861728304485846 
H  2.247728403347621  -4.654469368242932  -3.124844782952648 
C  0.862746814849014  -3.146833846479202  -3.4073555668815265 
H  1.2117146418720903  -2.9157544832636075  -4.2827101485218675 
H  -0.10549120652544453  -3.098096129954611  -3.44867988118773 
C  1.3783983319685664  -2.14233300364814  -2.374140052265144 
H  1.0347930121783069  -1.2598194806294587  -2.582536035674095 
H  2.34752118099669  -2.1051407847926837  -2.4156864401739306 
C  1.102646374791064  3.203641739538946  0.48090117393786735 
C  0.5277184293444275  3.441860206345253  1.734379454410653 
H  0.22295422551907618  2.7303233538560496  2.2512525990181707 
C  0.41326625735079525  4.747571650741874  2.206619323860098 
H  0.041405977066731214  4.906998746949373  3.0439027782182677 
C  0.8543035262540363  5.812175226923918  1.4280893995676647 
H  0.7871281601050342  6.681205713722518  1.7512917405204238 
C  1.3940196447902549  5.582261603429814  0.17119251949991174 
H  1.6702615953983146  6.298028313646724  -0.35555632128621284 
C  1.5226367796216826  4.276096217130971  -0.3039035300127695 
H  1.8889734804848288  4.121397967059015  -1.1440397172023165 
C  1.92735465119124  1.4882304051539053  -1.7333117568121366 
C  3.2301998029592234  1.1629876809174542  -2.1145081508742893 
H  3.8756802106137522  0.9983619780392083  -1.465173567407491 
C  3.567158574885892  1.08427130649827  -3.464198566643795 
H  4.433192812611864  0.8544168503845961  -3.714076593070915 
C  2.6089728629715414  1.349267852067956  -4.436226931620543 
H  2.8364972256053  1.3020886470419835  -5.337573899786097 
C  1.310803065405972  1.684376940315337  -4.0649992849363565 
H  0.6748878520952624  1.8689604004191858  -4.7178417144215565 
C  0.9638278108793676  1.7432133290656662  -2.722905990077507 
H  0.09147497287788564  1.9519324649223768  -2.477130831939014 
Br  -1.5839191898578664  1.5839191898578664  0.0 
C  -1.2937473829822488  -1.2398794889499034  -0.4598005675376139 
C  -1.601562203225019  -1.4938654694550033  -1.7919791134336869 
H  -1.1309417375171225  -1.0428217585005106  -2.480879663633267 
C  -2.60218398542082  -2.411889969420291  -2.121542410022959 
H  -2.8231586547736818  -2.5626138747145775  -3.03270050271447 
C  -3.2683208079706407  -3.09759503004543  -1.143064365570095 
H  -3.9596020908062854  -3.707191723557817  -1.3683280760515548 
C  -2.9347449854640226  -2.896087320001541  0.14198826503765638 
H  -3.3668350933519986  -3.405606940434718  0.8171022443470677 
C  -1.9675509241539992  -1.9516175659140573  0.5112421903797603 
H  -1.7755298364628027  -1.8022912010877177  1.4301324877763764 

-Ni 0
lanl2dz
F 1 1.0
3.130 1.0
****
-H 0
6-31g(d,p)
****
-P 0
6-31+g(d)
****
-N 0
6-31+g(d)
****
-C 0
6-31g(d)
****
-Br 0
6-31+g(d)
****

-Ni 0
lanl2dz


