%chk=FOPOTAWU_PN_Ni_gaussain.chk
%nprocshared=32
%mem=64GB
#p opt rwb97xd/gen pseudo=read

This Gaussian input file was generated using the DART python program. This file was generated on the 2023-10-04 at 16:41:16

0 1
Ni  0.0  0.0  0.0 
P  1.455370546458874  -1.4007128801078395  1.8701269260486122e-17 
N  1.4553705464588738  1.40071288010784  1.060179016414355e-16 
C  2.6528379202941723  0.9173410844919723  0.22179029690930557 
C  3.762457887150667  1.4169947500926743  1.0844459429264068 
C  3.9869070534633755  2.6831712200794824  1.627693739602356 
C  5.064997534591767  2.8276667607961623  2.460436715083684 
C  5.860022472778555  1.7441155801408166  2.834783368015779 
C  5.57929170131525  0.48733164533151657  2.3421119611339924 
C  4.527843340227991  0.3248288524804394  1.4335857004884471 
C  4.063781704160289  -0.9932132646577018  0.8522030249810008 
C  3.3322533885376027  -1.9042909474028973  1.8717256041551364 
C  1.7985109953935274  -1.6135105699363586  1.8065527297891548 
C  3.0357364005727305  -0.5139774380061193  -0.1782712620466368 
C  1.2013531029271165  2.777521651832366  0.3721362042102246 
C  0.5060855105290256  3.0313568096647305  1.5463583755258647 
C  0.3010399884753887  4.335247889654935  1.8937395572380087 
C  0.7298760906991058  5.341386945712946  1.1122258418725957 
C  1.4229106570105905  5.102904920064489  -0.09845925481444537 
C  1.6625585489507462  3.756537147780703  -0.48505199872492666 
C  0.034784057297347015  1.8756613220389087  2.4251727473149254 
C  2.3888772702148184  3.4668598372038475  -1.746820828930496 
C  1.5729481686823168  -3.0625535064471827  -0.631855027201924 
C  0.4969340910442337  -3.947907601930709  -0.4719913029389027 
C  0.5750769921053462  -5.267246969223256  -0.9213199476143248 
C  1.7193505885695242  -5.697616132355096  -1.5386935458999764 
C  2.803704826781881  -4.876784728340674  -1.6951995913251825 
C  2.733850742381243  -3.555186489836952  -1.2324454850479931 
H  3.4141832996918975  3.4163860991494386  1.4274111817588524 
H  5.277753345286608  3.6927405901356267  2.7937098535264884 
H  6.592457216777737  1.8711274771016728  3.4258065602961603 
H  6.095519865603197  -0.26079401259726775  2.616951591363229 
H  4.8188138314024735  -1.4794332028562898  0.4109374036934128 
H  3.669557554122549  -1.7259145124116198  2.785147323471496 
H  3.5041117342193786  -2.853983778026104  1.6573502173160597 
H  1.5727060231466161  -0.7912712185631273  2.30897889706341 
H  1.2804025531261143  -2.369471962908255  2.177756749685532 
H  3.3891633221222874  -0.5594736855990544  -1.112785185206145 
H  -0.15442527552284302  4.536019735187152  2.7032193836281677 
H  0.5623243869101076  6.2370173763429655  1.3795933011620307 
H  1.7221745928818626  5.825104850804127  -0.637759186880551 
H  0.1878700944168099  2.0978345342792655  3.3671185520202074 
H  0.5354358027273833  1.0653597312427883  2.1951729391603885 
H  -0.9219364457690225  1.7224589362769687  2.277488089989525 
H  2.3595471511681465  4.256692347286018  -2.3279314209299806 
H  1.9653070645018436  2.7099925662193898  -2.201920900282727 
H  3.3212144017587946  3.2455092882061614  -1.5429849449385689 
H  -0.29889393997428937  -3.644844668028568  -0.05010469122927769 
H  -0.15801622734276966  -5.8613193924995635  -0.8003454564939667 
H  1.7622938885482486  -6.589381091997527  -1.8661814994812918 
H  3.594527117473169  -5.198820697600322  -2.1113419456329052 
H  3.486263116024131  -2.983831755854364  -1.3303180958476521 
Br  -1.5839191898578664  1.5839191898578664  0.0 
C  -1.2937473829822488  -1.2398794889499034  -0.4598005675376139 
C  -1.601562203225019  -1.4938654694550033  -1.7919791134336869 
H  -1.1309417375171225  -1.0428217585005106  -2.480879663633267 
C  -2.60218398542082  -2.411889969420291  -2.121542410022959 
H  -2.8231586547736818  -2.5626138747145775  -3.03270050271447 
C  -3.2683208079706407  -3.09759503004543  -1.143064365570095 
H  -3.9596020908062854  -3.707191723557817  -1.3683280760515548 
C  -2.9347449854640226  -2.896087320001541  0.14198826503765638 
H  -3.3668350933519986  -3.405606940434718  0.8171022443470677 
C  -1.9675509241539992  -1.9516175659140573  0.5112421903797603 
H  -1.7755298364628027  -1.8022912010877177  1.4301324877763764 

-Ni 0
lanl2dz
F 1 1.0
3.130 1.0
****
-H 0
6-31g(d,p)
****
-P 0
6-31+g(d)
****
-N 0
6-31+g(d)
****
-C 0
6-31g(d)
****
-Br 0
6-31+g(d)
****

-Ni 0
lanl2dz


