%chk=UFAMAHES_PN_Ni_gaussain.chk
%nprocshared=32
%mem=64GB
#p opt rwb97xd/gen pseudo=read

This Gaussian input file was generated using the DART python program. This file was generated on the 2023-10-04 at 09:55:46

0 1
Ni  0.0  0.0  0.0 
P  1.417200139359293  -1.4393205914597345  1.549434997485429e-15 
N  1.4172001393592932  1.4393205914597345  4.577866939722741e-17 
N  2.8119442880372567  -0.4909846556723634  -0.04269253591576334 
C  1.4016604568517887  2.7872355323780753  -0.027677072039335875 
H  0.5683154168666312  3.2414985602813284  -0.01903960642034834 
C  2.5820469392723497  3.529841398883462  -0.06784383878282751 
H  2.5314115843434815  4.478154052852869  -0.07993065609443144 
C  3.829021731530756  2.9195659152893856  -0.08972674526649266 
H  4.6282367960216915  3.433039629474538  -0.09579267731903351 
C  3.866363334091646  1.5239688975584023  -0.10324039830961633 
C  4.860629830513325  0.47351488198247216  -0.09909971554046665 
H  5.8026631630936265  0.594558126992474  -0.11948483621956311 
C  4.209546210375764  -0.717006104215713  -0.06123415057347778 
H  4.627905171764333  -1.5704737731206402  -0.04868036389909778 
C  2.6274009840925614  0.8740967977982241  -0.065350963924038 
N  1.388429685634228  -2.4757460958618456  -1.3068170204039031 
C  2.1282694214666984  -3.649603567244562  -1.4987386506656506 
H  2.6707879718079295  -4.081636561623769  -0.8492206722359547 
C  1.9321597620887694  -4.059184072448147  -2.7787624399976623 
H  2.304683614735919  -4.835626330435021  -3.180887805053373 
C  1.0694405120888915  -3.1210287559661234  -3.4111229999918673 
H  0.7690750057713232  -3.160653378401462  -4.312458443604017 
C  0.7490009730191199  -2.1607807311683316  -2.5093221058513104 
H  0.19092191158897598  -1.4088571802779832  -2.6660193132601 
N  1.7186594870681284  -2.471319274597837  1.2826990292661071 
C  1.0120516439550717  -3.65460386741584  1.5330665360449764 
H  0.579609464982151  -4.191783040414304  0.8792083878646146 
C  1.049250001468415  -3.9037406560699415  2.8661750210294055 
H  0.6660080625666497  -4.653613656153533  3.3059927673885725 
C  1.7657347678370023  -2.8375849996406153  3.4919129180961597 
H  1.9384913850311263  -2.7491939276620148  4.422645892482527 
C  2.1551586237048754  -1.974476313242895  2.5212813783521386 
H  2.6414039298260543  -1.1701497915012065  2.6563768952949056 
Br  -1.5839191898578664  1.5839191898578664  0.0 
C  -1.2937473829822488  -1.2398794889499034  -0.4598005675376139 
C  -1.601562203225019  -1.4938654694550033  -1.7919791134336869 
H  -1.1309417375171225  -1.0428217585005106  -2.480879663633267 
C  -2.60218398542082  -2.411889969420291  -2.121542410022959 
H  -2.8231586547736818  -2.5626138747145775  -3.03270050271447 
C  -3.2683208079706407  -3.09759503004543  -1.143064365570095 
H  -3.9596020908062854  -3.707191723557817  -1.3683280760515548 
C  -2.9347449854640226  -2.896087320001541  0.14198826503765638 
H  -3.3668350933519986  -3.405606940434718  0.8171022443470677 
C  -1.9675509241539992  -1.9516175659140573  0.5112421903797603 
H  -1.7755298364628027  -1.8022912010877177  1.4301324877763764 

-Ni 0
lanl2dz
F 1 1.0
3.130 1.0
****
-P 0
6-31+g(d)
****
-N 0
6-31+g(d)
****
-C 0
6-31g(d)
****
-H 0
6-31g(d,p)
****
-Br 0
6-31+g(d)
****

-Ni 0
lanl2dz


