%chk=YUFAYULI_gaussain.chk
%nprocshared=32
%mem=64GB
#p opt rwb97xd/gen pseudo=read

This Gaussian input file was generated using the DART python program

-1 0
Fe  0.0  0.0  0.0 
C  3.56543  -0.02931  0.05609 
C  4.19214  -1.19969  -0.01908 
H  3.58748  -2.10079  -0.09234 
C  5.66649  -1.27386  0.02957 
C  6.37552  0.05959  -0.10742 
C  5.61491  1.32691  0.12832 
C  4.27662  1.2419  0.19472 
H  3.64985  2.10761  0.34253 
C  6.38964  -2.63119  -0.1381 
C  5.45957  -3.83856  0.14123 
H  5.01254  -3.76998  1.15765 
H  6.02404  -4.79149  0.07114 
H  4.6411  -3.90422  -0.60743 
C  6.9208  -2.75057  -1.57317 
H  6.07254  -2.74868  -2.29286 
H  7.48671  -3.69667  -1.6974 
H  7.59378  -1.91034  -1.83554 
C  7.52951  -2.68157  0.89833 
H  8.24332  -1.84419  0.78911 
H  8.10583  -3.62308  0.80293 
H  7.10501  -2.62443  1.92671 
C  6.33166  2.67054  0.30383 
C  6.96879  3.0782  -1.03736 
H  6.17193  3.20623  -1.80418 
H  7.67948  2.31663  -1.41344 
H  7.51211  4.04023  -0.934 
C  7.39856  2.50489  1.40791 
H  8.16073  1.74326  1.15863 
H  6.91213  2.19188  2.35877 
H  7.94298  3.45509  1.57601 
C  5.39199  3.81817  0.75799 
H  5.96471  4.75132  0.93848 
H  4.88339  3.54497  1.71065 
H  4.62141  4.04664  -0.00969 
N  2.17814  -0.00388  0.01643 
O  7.56009  0.09172  -0.37763 
O  1.4228  1.08615  0.0 
O  1.4228  -1.08615  0.0 
Cl  -1.52028  1.52028  0.0 
Cl  -1.52028  -1.52028  0.0 

-x 0
6-31+g(d)
****
-C 0
6-31g(d)
****
-H 0
6-31g(d,p)
****
-N 0
6-31+g(d)
****
-x 0
6-31+g(d)
****
-x 0
6-31+g(d)
****


