%chk=ULIJUZOF_PN_Ni_gaussain.chk
%nprocshared=32
%mem=64GB
#p opt rwb97xd/gen pseudo=read

This Gaussian input file was generated using the DART python program. This file was generated on the 2023-08-13 at 16:51:13

0 1
Ni  0.0  0.0  0.0 
N  1.4411345096832562  1.415355547203598  1.2284773133625453e-15 
P  1.4411345096832562  -1.4153555472035984  1.1102230246251565e-16 
C  2.2758723606851223  -0.42874826837606517  1.236709993276258 
C  2.4838130898666497  -1.142635462301516  2.359727347325912 
C  2.973774514135397  -0.5839987709329258  3.6703838201613253 
H  3.8214182819232114  -0.13753776242627658  3.5193118478643144 
H  2.3405936646307244  0.08193504468126167  3.979297586513789 
C  3.153809406203804  -1.5986226496023495  4.733819291862238 
H  4.044016984733347  -1.967703052072312  4.633399654135495 
H  3.1352943082161895  -1.1315206261523376  5.583298921303377 
C  2.2830834434414817  -2.6514669705534866  4.8300297050854475 
H  1.3896872727946845  -2.324669593799741  5.016099495273185 
H  2.5531876670865015  -3.235883113645068  5.554236581649787 
C  2.286597937858599  -3.4934545738483145  3.399832283668767 
H  3.1374110586668684  -3.9466862485800935  3.2925555271911806 
H  1.5887349290390154  -4.166815572703328  3.4186345745462594 
C  2.0623650340396424  -2.565850299718077  2.2270603853610655 
C  1.4921537837245902  -2.8867769572617865  1.0534361906155905 
C  1.0674544704140811  -4.207492881746806  0.5291583348127004 
C  1.474331121935316  -5.39371154483619  1.1646314528793171 
H  1.9940340229176656  -5.362996184949488  1.9346836597962098 
C  1.088029156105298  -6.6181210428057575  0.6193125439115589 
H  1.337686834342808  -7.399015240863406  1.0601684672436176 
C  0.3516936675189444  -6.725385634589745  -0.5447712570227881 
H  0.12548790794389042  -7.553854949114095  -0.9044937601090347 
C  -0.024142046433863085  -5.557539531703609  -1.1404020706072155 
H  -0.48826990128778913  -5.586088139210631  -1.944374322216749 
C  0.27448178427946557  -4.318993522212587  -0.5643024263580908 
H  -0.08220363428557853  -3.5492350490483338  -0.9441377922403701 
C  2.331200917929954  1.0026438535559437  0.9335146205803885 
C  3.3195239958705827  1.8678847659327378  1.4251314095118945 
H  3.9065338396417584  1.5878296654435737  2.0924114586709854 
C  3.402083173988134  3.136849806942069  0.9091221588150262 
H  4.046027393912407  3.7196244684959603  1.2399371153645289 
C  2.540029265125474  3.5806494982924453  -0.11090573402514062 
C  2.722170860327054  4.845255125858143  -0.836099801862573 
C  3.5181960741455995  5.946711740826808  -0.35941228964214955 
C  3.8750025756643893  6.146901043479282  1.002144537514714 
H  3.5892217418500927  5.5374516781206875  1.6444143609444115 
C  4.634210625142276  7.219449272084647  1.3825700031758483 
H  4.86460804388543  7.324231985723644  2.279315442171201 
C  5.0732660508906635  8.17597441707371  0.43610275592184844 
H  5.614413344764215  8.882675826466015  0.7043368594513265 
C  4.70280467258046  8.060542170863354  -0.8709483309585965 
H  4.99193077165513  8.684639141935554  -1.496555116034008 
C  3.871851406144625  6.975349900246528  -1.272189224678463 
C  3.3921758631412473  6.943282964776021  -2.6177045962346304 
H  3.6891855687938158  7.570830771936471  -3.2366150780301193 
C  2.517528850144913  6.007359621968472  -2.979772875768389 
H  2.1210986985756923  6.063208832547522  -3.8196433066114692 
C  2.17262054874785  4.932264213605254  -2.1292171065540817 
C  1.2517435517811928  3.9374611566759428  -2.590748735352983 
H  0.8896868259022994  4.014152561330032  -3.4427451940886153 
C  0.8922671653265946  2.869804956800517  -1.7992333681938302 
H  0.19056925392623225  2.3117643594675688  -2.0499676954500865 
C  1.589120610787226  2.638694649820566  -0.6223727853050443 
C  2.433553332534296  -1.7430845838519953  -1.4771314797906605 
C  2.164204180204564  -1.009791838399745  -2.630275236486394 
H  1.5068821366926217  -0.35326216157336776  -2.629741795261119 
C  2.9027910038048788  -1.2830824548559625  -3.795632672194873 
H  2.7364316014390297  -0.8064987714608478  -4.575313621023326 
C  3.86933934698596  -2.2524026392510477  -3.779211940840982 
H  4.35560090644354  -2.427172201915866  -4.550006437292421 
C  4.128616419696822  -2.9708513230528446  -2.6380225576490415 
H  4.78805284002889  -3.6279694173985133  -2.6491287551604277 
C  3.423455528291289  -2.7275060055596603  -1.4710538718282322 
H  3.6068651002083927  -3.2127740086116177  -0.6986916872650932 
Br  -1.5839191898578664  1.5839191898578664  0.0 
C  -1.2937473829822488  -1.2398794889499034  -0.4598005675376139 
C  -1.601562203225019  -1.4938654694550033  -1.7919791134336869 
H  -1.1309417375171225  -1.0428217585005106  -2.480879663633267 
C  -2.60218398542082  -2.411889969420291  -2.121542410022959 
H  -2.8231586547736818  -2.5626138747145775  -3.03270050271447 
C  -3.2683208079706407  -3.09759503004543  -1.143064365570095 
H  -3.9596020908062854  -3.707191723557817  -1.3683280760515548 
C  -2.9347449854640226  -2.896087320001541  0.14198826503765638 
H  -3.3668350933519986  -3.405606940434718  0.8171022443470677 
C  -1.9675509241539992  -1.9516175659140573  0.5112421903797603 
H  -1.7755298364628027  -1.8022912010877177  1.4301324877763764 

-Ni 0
lanl2dz
F 1 1.0
3.130 1.0
****
-C 0
6-31g(d)
****
-N 0
6-31+g(d)
****
-H 0
6-31g(d,p)
****
-Br 0
6-31+g(d)
****
-P 0
6-31+g(d)
****

-Ni 0
lanl2dz


