%chk=TAMEZUCU_PN_Ni_gaussain.chk
%nprocshared=32
%mem=64GB
#p opt rwb97xd/gen pseudo=read

This Gaussian input file was generated using the DART python program. This file was generated on the 2023-08-11 at 15:55:49

0 0
Ni  0.0  0.0  0.0 
N  1.4411345096832573  -1.4153555472035984  1.3399829924645419e-15 
P  1.4411345096832562  1.4153555472035984  -2.843533665163494e-16 
C  1.751810250303325  0.4287482683760649  -1.459355841306273 
C  1.5239198317597935  1.1426354623015158  -2.5784953685705454 
C  1.4872235972749337  0.5839987709329253  -3.977257669117514 
H  2.32973777009476  0.13753776242627586  -4.154719119807397 
H  0.7844274029207317  -0.08193504468126239  -4.026483804683799 
C  1.2557791030879006  1.5986226496023488  -5.0307001264659625 
H  2.118783055514373  1.9677030520723113  -5.2710702881102645 
H  0.9203915330069055  1.131520626152337  -5.811388045883243 
C  0.41241499351387456  2.6514669705534866  -4.793725181538528 
H  -0.4856304818814705  2.3246695937997406  -4.631573990766412 
H  0.39155859776969026  3.235883113645067  -5.56638092794217 
C  0.9514349599435186  3.4934545738483145  -3.4689857763391223 
H  1.7804817291073043  3.9466862485800935  -3.688240704582343 
H  0.29734418333257095  4.166815572703329  -3.2249948724647246 
C  1.1828579175389144  2.565850299718077  -2.2976114829072 
C  1.0938146140985563  2.886776957261787  -0.9958411842022934 
C  0.8964382093171693  4.207492881746806  -0.35064405800963044 
C  1.0356352514415306  5.393711544836191  -1.0922631494590578 
H  1.2290287564183517  5.3629961849494885  -2.000927256211284 
C  0.8817423645502227  6.6181210428057575  -0.4419409980247216 
H  0.9480733973540235  7.399015240863406  -0.9442189046930195 
C  0.6350974551070755  6.725385634589745  0.9132148365549191 
H  0.5601175484752545  7.553854949114095  1.3314819025463018 
C  0.5097558791708625  5.557539531703609  1.6062646466807815 
H  0.3805973320719527  5.586088139210631  2.5255600925091004 
C  0.5708243483968602  4.318993522212588  0.9602479019749917 
H  0.3824002196160041  3.549235049048334  1.4460418301842863 
C  1.916688980982273  -1.0026438535559443  -1.1989644293114055 
C  2.6488832913768796  -1.8678847659327384  -2.025015920064337 
H  2.9431818349233927  -1.5878296654435746  -2.863604965995908 
C  2.9187312959484277  -3.13684980694207  -1.5775076864809257 
H  3.3918605159797774  -3.7196244684959616  -2.1254597236185373 
C  2.501558004010851  -3.580649498292446  -0.30882321489183523 
C  2.942099229644798  -4.845255125858145  0.2953335737368386 
C  3.50159067064863  -5.94671174082681  -0.44483968488928455 
C  3.3223677332979045  -6.146901043479284  -1.840915260146912 
H  2.8167978476318094  -5.537451678120689  -2.329362086087639 
C  3.8837832912909596  -7.219449272084649  -2.478043950882821 
H  3.761477304020178  -7.324231985723646  -3.395800235742924 
C  4.645421264578357  -8.175974417073713  -1.7649678577130115 
H  5.046682034639288  -8.882675826466016  -2.2163875320439543 
C  4.791565410945451  -8.060542170863355  -0.41431391794254946 
H  5.293994888516332  -8.684639141935556  0.05743004944481373 
C  4.171426442742154  -6.975349900246529  0.2689907329338131 
C  4.230717953566275  -6.943282964776023  1.6962204826215528 
H  4.73794850451177  -7.570830771936473  2.158802494718504 
C  3.5553925294510993  -6.007359621968474  2.359572883635981 
H  3.5024498944615434  -6.063208832547524  3.28679253564844 
C  2.9169753218740686  -4.932264213605256  1.7001562308390665 
C  2.2360458294626953  -3.937461156675943  2.473047500222077 
H  2.21951616979985  -4.014152561330034  3.3986336976146405 
C  1.6062382525161476  -2.8698049568005173  1.8738294556938202 
H  1.04956201046839  -2.3117643594675688  2.3691669399082373 
C  1.8114897822650429  -2.638694649820567  0.5216174288491408 
C  2.9146324108707002  1.7430845838519955  0.9978058246641873 
C  3.0968714800039434  1.0097918383997453  2.1678820662606637 
H  2.4872132634086306  0.3532621615733678  2.413624639666418 
C  4.21822783714458  1.283082454855963  2.9717031715181332 
H  4.356055709407499  0.8064987714608481  3.756930087988145 
C  5.108244541366487  2.252402639251048  2.594402752315756 
H  5.847843108931427  2.4271722019158664  3.1269141783169574 
C  4.921144989763394  2.970851323052845  1.439183480258099 
H  5.536724246624147  3.6279694173985138  1.202451736281306 
C  3.8301770323618776  2.7275060055596607  0.6213468753195812 
H  3.7108994593739446  3.212774008611618  -0.16348130702103075 
Br  -1.5839191898578664  1.5839191898578664  0.0 
C  -1.2937473829822488  -1.2398794889499034  -0.4598005675376139 
C  -1.601562203225019  -1.4938654694550033  -1.7919791134336869 
H  -1.1309417375171225  -1.0428217585005106  -2.480879663633267 
C  -2.60218398542082  -2.411889969420291  -2.121542410022959 
H  -2.8231586547736818  -2.5626138747145775  -3.03270050271447 
C  -3.2683208079706407  -3.09759503004543  -1.143064365570095 
H  -3.9596020908062854  -3.707191723557817  -1.3683280760515548 
C  -2.9347449854640226  -2.896087320001541  0.14198826503765638 
H  -3.3668350933519986  -3.405606940434718  0.8171022443470677 
C  -1.9675509241539992  -1.9516175659140573  0.5112421903797603 
H  -1.7755298364628027  -1.8022912010877177  1.4301324877763764 

-Ni 0
lanl2dz
F 1 1.0
3.130 1.0
****
-P 0
6-31+g(d)
****
-H 0
6-31g(d,p)
****
-N 0
6-31+g(d)
****
-Br 0
6-31+g(d)
****
-C 0
6-31g(d)
****

-Ni 0
lanl2dz
