%chk=WAZILUPE_PN_Pd_gaussain.chk
%nprocshared=32
%mem=64GB
#p opt rwb97xd/gen pseudo=read

This Gaussian input file was generated using the DART python program. This file was generated on the 2023-10-04 at 16:41:16

0 1
Pd  0.0  0.0  0.0 
P  1.4890637184150293  -1.5082404458507281  2.1852940065506853e-15 
N  1.4890637184150313  1.5082404458507273  -2.957284858980827e-16 
H  1.3555357390976912  2.310127869256756  -0.4312496132435026 
H  1.0397221064622466  1.5719537949154363  0.8001427715843283 
C  1.8237296363259752  -3.0313147251008643  -0.9037138613939331 
H  2.2335962845556763  -2.8156836525522455  -1.7664035861620575 
H  0.9828300572863398  -3.513922134948856  -1.0523963618127699 
H  2.434654071109314  -3.592873392573322  -0.38234891438345436 
C  0.7395848687770423  -2.0601112614689288  1.548991464409753 
H  0.5262042232175371  -1.2818319968932481  2.1053292632623553 
H  1.3683807742153768  -2.6401007236309697  2.027392282850715 
H  -0.0815447706267236  -2.559299515617178  1.3551372351211282 
C  3.1717342776311694  -1.0154243852253626  0.4822354503113586 
H  3.5532418461767206  -1.7263231036291244  1.056140483669983 
H  3.729169503220825  -0.9630161666170785  -0.33407804210080916 
C  3.2783224963482978  0.30356596241638906  1.2192262606059079 
H  2.676384928414219  0.2846409958578242  2.0044136649562256 
H  4.205219925510736  0.4145328148572131  1.5511383325036627 
C  2.9209868918608017  1.4868817559358511  0.35454298993798117 
H  3.1487095481026186  2.3211825953422878  0.836006759291289 
H  3.4604344055665126  1.4571642462885617  -0.47526372224088925 
Br  -1.654629867976521  1.654629867976521  0.0 
C  -1.352040782177733  -1.3199206589279684  -0.4819701001757076 
C  -1.6380700204479186  -1.599217458033982  -1.8139382277462257 
H  -1.1579680913617836  -1.159339363685303  -2.503515938957912 
C  -2.63068216563725  -2.52632649780156  -2.142289956238523 
H  -2.8368222554424674  -2.694399528648736  -3.0538898079700485 
C  -3.3101544432602585  -3.1961573187854975  -1.1619874135498987 
H  -3.9960123560788676  -3.811990145619169  -1.3868663427944008 
C  -2.9974710358883443  -2.9701089012107795  0.12423560353005347 
H  -3.438659168087169  -3.468581175155742  0.8017084178296768 
C  -2.0389854250767776  -2.015940632791841  0.4912562833419403 
H  -1.8619130127668426  -1.8492165108145995  1.4101568590026907 

-Pd 0
lanl2dz
F 1 1.0
1.472 1.0
****
-H 0
6-31g(d,p)
****
-P 0
6-31+g(d)
****
-N 0
6-31+g(d)
****
-C 0
6-31g(d)
****
-Br 0
6-31+g(d)
****

-Pd 0
lanl2dz


