%chk=SUQOHEME_PN_Pd_gaussain.chk
%nprocshared=32
%mem=64GB
#p opt rwb97xd/gen pseudo=read

This Gaussian input file was generated using the DART python program. This file was generated on the 2023-10-04 at 09:55:46

0 1
Pd  0.0  0.0  0.0 
P  1.4324620335282872  1.5620987556809591  -2.2003622180305888e-15 
C  2.998707384805752  0.6824961601324937  -0.3847970159788137 
H  3.673952056415685  1.3403371969189528  -0.6889345239947006 
H  3.340779562818345  0.2561281967897009  0.4401569796261886 
N  2.828624550473145  -0.34282456890284774  -1.4203045109182986 
C  2.3796966321635886  -1.561200371379136  -0.9737884103099057 
N  1.4324620335282887  -1.5620987556809587  -1.1102230246251565e-16 
C  1.1466940389232005  -2.7408879604628877  0.6145926325209073 
H  0.5534881873485584  -2.7325757843262783  1.3561312595562778 
C  1.6773008365787294  -3.946164904800032  0.21235128241991036 
H  1.4701812023852718  -4.748284306946147  0.677036392825151 
C  2.52414574061011  -3.958974094953491  -0.8898367837302089 
H  2.845503224922406  -4.783795883789966  -1.2357319758579255 
C  2.8947855435352094  -2.773466390485268  -1.477941722609427 
H  3.4915313026638137  -2.7706035433165246  -2.2165007676885216 
C  3.8244035273629624  -0.3200302482041679  -2.492663866791231 
H  4.683004594452685  -0.6447423562929313  -2.1488750443246554 
H  3.930695496229044  0.597913367578893  -2.820443084554789 
H  3.5273076132991044  -0.8964585640999034  -3.227309900252365 
C  1.7512405474233246  2.3031145498427037  1.6930646094823945 
C  2.046202192826536  1.1290280951098877  2.6433410506056982 
H  2.2229555364495424  1.4739791380835452  3.5439249575624565 
H  2.8310373646758973  0.6383303897232302  2.3216396596287967 
H  1.2731577747392824  0.5281145859055332  2.669545479999482 
C  0.5166587980841252  3.044854072255232  2.2138486771053065 
H  0.7107628461098026  3.423821937025048  3.096108313500313 
H  -0.23359457959539065  2.419629641694664  2.286337094874596 
H  0.2824223051830377  3.7657425569970977  1.5922379565092064 
C  2.963089569876179  3.2488249760417247  1.6898294033780865 
H  3.094954507924216  3.6131130518951204  2.5903122937789225 
H  2.803146881889306  3.9829678276568137  1.0599990532186214 
H  3.7639169020574395  2.753306551111816  1.417021073984647 
C  1.257967549629191  2.8371384692435946  -1.3704285475452385 
C  0.29254881764344454  3.978778995179863  -1.0093196422673212 
H  0.24325238867807442  4.613268848267248  -1.7550464343436367 
H  0.6175419430571875  4.440707261479163  -0.2075812527489317 
H  -0.5980430250161781  3.6105091096122095  -0.8354773540513871 
C  2.6074627567643303  3.4502268425087754  -1.7646030171477087 
H  2.471010205758419  4.10978308775453  -2.4770777961268164 
H  3.2058910111843746  2.743363268112894  -2.084890827568393 
H  3.0070896853787894  3.888908131068714  -0.9844452542602378 
C  0.6998852720200731  2.0805707390012076  -2.587273180591933 
H  0.5909024119382744  2.702676611927515  -3.3366697105271794 
H  -0.1684354785735951  1.6897590231735025  -2.3585480685900584 
H  1.321941329257755  1.3673384443411194  -2.8424879832735392 
Br  -1.654629867976521  1.654629867976521  0.0 
C  -1.352040782177733  -1.3199206589279684  -0.4819701001757076 
C  -1.6380700204479186  -1.599217458033982  -1.8139382277462257 
H  -1.1579680913617836  -1.159339363685303  -2.503515938957912 
C  -2.63068216563725  -2.52632649780156  -2.142289956238523 
H  -2.8368222554424674  -2.694399528648736  -3.0538898079700485 
C  -3.3101544432602585  -3.1961573187854975  -1.1619874135498987 
H  -3.9960123560788676  -3.811990145619169  -1.3868663427944008 
C  -2.9974710358883443  -2.9701089012107795  0.12423560353005347 
H  -3.438659168087169  -3.468581175155742  0.8017084178296768 
C  -2.0389854250767776  -2.015940632791841  0.4912562833419403 
H  -1.8619130127668426  -1.8492165108145995  1.4101568590026907 

-Pd 0
lanl2dz
F 1 1.0
1.472 1.0
****
-P 0
6-31+g(d)
****
-N 0
6-31+g(d)
****
-C 0
6-31g(d)
****
-H 0
6-31g(d,p)
****
-Br 0
6-31+g(d)
****

-Pd 0
lanl2dz


