%chk=VUDIKIGO_PN_Pd_gaussain.chk
%nprocshared=32
%mem=64GB
#p opt rwb97xd/gen pseudo=read

This Gaussian input file was generated using the DART python program. This file was generated on the 2023-10-04 at 09:55:46

0 1
Pd  0.0  0.0  0.0 
P  1.5118602506514947  -1.4853883608336238  2.1031900041379977e-16 
N  1.5118602506514947  1.4853883608336238  -2.374187613898209e-16 
C  1.4326593433117265  2.4461630798431884  -1.2092103727593022 
C  0.817369307536668  3.7580244161649574  -0.7222420923343824 
C  0.6974676662000663  3.566517711588144  0.7613187990708088 
C  0.24998984455550977  4.452866251616506  1.774568583046043 
C  0.3298561677193925  4.02200125235071  3.121918508949491 
C  0.8513515326970815  2.7726952735704873  3.48471438225952 
C  1.210625405537325  1.8553658694035573  2.451506906219421 
C  1.137915373773223  2.3121192565239737  1.1676398824841336 
C  1.3959483040652056  -2.5698957007833796  1.442794881552382 
C  2.11285469649638  -2.2919994004728386  2.619657299494705 
C  1.9692184229749838  -3.11740666925736  3.718420969064559 
C  1.1273928173801193  -4.219553557685397  3.67388103088253 
C  0.42337430080404315  -4.487256035693799  2.5431714963042666 
C  0.5462694381411513  -3.6671613102198855  1.430440645438336 
C  1.771743890601253  -2.554327078724822  -1.4338776241645004 
C  2.5243016937483245  -3.716938517951946  -1.325162793986182 
C  2.7763005362678648  -4.496199905425313  -2.4924020596733514 
C  2.2642371335812186  -4.090412081921887  -3.7042327260312287 
C  1.5538677186654775  -2.946341982270455  -3.811562411746914 
C  1.2828789496685749  -2.158243252761747  -2.6903035122842103 
C  2.993069799546391  -0.4909548685912195  0.19133424097425666 
C  4.2732113509918  -1.1031232778614282  0.33106615198451 
C  5.378497538808022  -0.31742605498496473  0.4272844298058365 
C  5.241609207269973  1.064871456655482  0.429425457913373 
C  4.028428753576638  1.716979902191159  0.3144714582547878 
C  2.8789706922546885  0.8952794720659266  0.1625134759240549 
C  4.045545052495979  3.2236257760985216  0.32432148105799885 
H  0.8879366270894901  2.0666554205239547  -1.888870132454927 
H  2.3032334857068415  2.6053929528087068  -1.5538276824644488 
H  -0.034655876247476236  3.8990594818244366  -1.1163033140398821 
H  1.3861932550600513  4.49256610827009  -0.9238518125446301 
H  -0.08799739165983067  5.315485179289331  1.5568058824380298 
H  0.010333145699126245  4.596102051498899  3.8044459961735764 
H  0.9660305898575454  2.5473904483649226  4.402887306924541 
H  1.483856883484655  0.9674191513750239  2.652195509286659 
H  2.6925588750398384  -1.5395836218997736  2.6604411386169886 
H  2.4509072879606166  -2.9301515665959257  4.51444162449764 
H  1.0405955972639545  -4.783303885263057  4.435916030561821 
H  -0.15515224443232456  -5.241429920139281  2.514703997691049 
H  0.04418363190087038  -3.86212056305628  0.6469160236774474 
H  2.8697360097747113  -3.988709558202621  -0.48085820736328466 
H  3.3016316772362044  -5.2864284180152765  -2.435793754463158 
H  2.409469590101791  -4.624753100693948  -4.475474691454953 
H  1.2338614833434174  -2.6734400189263368  -4.665079692039433 
H  0.7699777271060277  -1.36359628626905  -2.7771715992770956 
H  4.352530603385928  -2.0511631354039292  0.3630770049945484 
H  6.241763106825758  -0.7107610207121143  0.49106110117915264 
H  6.0270378933258355  1.5941307606389854  0.5108365644497914 
H  4.572007511568005  3.5365126528606154  -0.4011774173132601 
H  4.420793276279394  3.5248699333833375  1.1430609684709143 
H  3.1594706302800697  3.547745159752374  0.24067625743693072 
Br  -1.654629867976521  1.654629867976521  0.0 
C  -1.352040782177733  -1.3199206589279684  -0.4819701001757076 
C  -1.6380700204479186  -1.599217458033982  -1.8139382277462257 
H  -1.1579680913617836  -1.159339363685303  -2.503515938957912 
C  -2.63068216563725  -2.52632649780156  -2.142289956238523 
H  -2.8368222554424674  -2.694399528648736  -3.0538898079700485 
C  -3.3101544432602585  -3.1961573187854975  -1.1619874135498987 
H  -3.9960123560788676  -3.811990145619169  -1.3868663427944008 
C  -2.9974710358883443  -2.9701089012107795  0.12423560353005347 
H  -3.438659168087169  -3.468581175155742  0.8017084178296768 
C  -2.0389854250767776  -2.015940632791841  0.4912562833419403 
H  -1.8619130127668426  -1.8492165108145995  1.4101568590026907 

-Pd 0
lanl2dz
F 1 1.0
1.472 1.0
****
-P 0
6-31+g(d)
****
-N 0
6-31+g(d)
****
-C 0
6-31g(d)
****
-H 0
6-31g(d,p)
****
-Br 0
6-31+g(d)
****

-Pd 0
lanl2dz


