%chk=MAXIJAVU_PN_Pd_gaussain.chk
%nprocshared=32
%mem=64GB
#p opt rwb97xd/gen pseudo=read

This Gaussian input file was generated using the DART python program. This file was generated on the 2023-08-11 at 15:55:49

0 0
Pd  0.0  0.0  0.0 
P  1.5289596700044124  1.4677814304248438  2.6157099212702815e-15 
N  1.528959670004412  -1.4677814304248438  1.1102230246251565e-16 
C  2.6434282013656234  -1.3785488428711976  0.6271755957657358 
H  3.2124767214053227  -2.1102826846661085  0.5547489665973727 
C  3.128044547940869  -0.2668133479428514  1.4433760833596305 
C  2.6899797443420663  1.063686752085494  1.3296542663124424 
C  3.250105733761911  2.039606173947499  2.149199620767571 
H  2.9667596345238127  2.9224220061555277  2.070626187283924 
C  4.223796700844586  1.7101921583606892  3.078293349600485 
H  4.574445292265553  2.3666643823764293  3.6347129973757353 
C  4.672176223024275  0.41298256329932626  3.17913421716246 
H  5.328016009362768  0.19571315697655  3.801043695890412 
C  4.147509411369711  -0.5709285218695284  2.3559187087868434 
H  4.474073988696231  -1.4395509363328132  2.4105756198551482 
C  1.0306852455045985  3.1953349220002627  0.20270614602170134 
C  0.38235526387414387  3.611575363074082  1.3763186332310715 
H  0.2464377804034752  3.013101185113034  2.0732844760102225 
C  -0.051514336599413735  4.915633436929113  1.485245304888815 
H  -0.46628068803543776  5.196436328597189  2.2696876225561495 
C  0.12252831511856765  5.811957428178411  0.446296991403523 
H  -0.1799956012767192  6.686899731153512  0.5310090712592673 
C  0.7501437790724055  5.404327805948608  -0.7163035678974041 
H  0.8690437814855763  6.00560777291518  -1.4150646506365878 
C  1.2024297394287573  4.093269537931817  -0.8409892043169954 
H  1.6209070468679063  3.819035219622249  -1.6261117054719274 
C  2.5748510213523006  1.406255887092509  -1.477437006675224 
C  3.9300455807439016  1.7004211667792992  -1.420844035183809 
H  4.312620932836064  1.9551764268262737  -0.6125784368499633 
C  4.720354224253233  1.618851143805684  -2.5581519659337015 
H  5.627917444571716  1.8138390889230713  -2.513252607540645 
C  4.146468051344369  1.2447735743401296  -3.7596546636280523 
H  4.67096260230219  1.1860272867712496  -4.525555492529887 
C  2.8052652313155173  0.958530383568605  -3.828700816914597 
H  2.429194477877304  0.7048419172332441  -4.639104673307742 
C  2.0080348419760936  1.044897503612702  -2.6975033112202884 
H  1.0977728429570404  0.862599346371026  -2.753592659657788 
C  1.3276412672280733  -2.6956534266513827  -0.7529453841987775 
C  1.25275877848279  -2.5911702578218048  -2.159977867942739 
H  1.31311823329207  -1.759588382142463  -2.5737958596453154 
C  1.088609339403439  -3.7325479692942083  -2.914648605022134 
H  1.0682587609856857  -3.6891621703734754  -3.8430999857686365 
C  0.9571643172421938  -4.927603666035301  -2.2688636037750523 
H  0.8349450327446147  -5.69676968871296  -2.777599611990637 
C  0.996329422631083  -5.041610657492855  -0.9074417035476685 
H  0.8982556976789638  -5.875397786579079  -0.5098419326169344 
C  1.187441836383874  -3.8878722262130414  -0.09650569651777667 
C  1.194972050084162  -3.982368226860667  1.3743332721471404 
H  0.6698642443625544  -4.739298633507399  1.6470907502551926 
H  0.81903674168437  -3.181497555224117  1.7468774053861065 
H  2.0976604722569885  -4.0892033126231375  1.6847096999332796 
Br  -1.654629867976521  1.654629867976521  0.0 
C  -1.352040782177733  -1.3199206589279684  -0.4819701001757076 
C  -1.6380700204479186  -1.599217458033982  -1.8139382277462257 
H  -1.1579680913617836  -1.159339363685303  -2.503515938957912 
C  -2.63068216563725  -2.52632649780156  -2.142289956238523 
H  -2.8368222554424674  -2.694399528648736  -3.0538898079700485 
C  -3.3101544432602585  -3.1961573187854975  -1.1619874135498987 
H  -3.9960123560788676  -3.811990145619169  -1.3868663427944008 
C  -2.9974710358883443  -2.9701089012107795  0.12423560353005347 
H  -3.438659168087169  -3.468581175155742  0.8017084178296768 
C  -2.0389854250767776  -2.015940632791841  0.4912562833419403 
H  -1.8619130127668426  -1.8492165108145995  1.4101568590026907 

-Pd 0
lanl2dz
F 1 1.0
1.472 1.0
****
-P 0
6-31+g(d)
****
-H 0
6-31g(d,p)
****
-N 0
6-31+g(d)
****
-Br 0
6-31+g(d)
****
-C 0
6-31g(d)
****

-Pd 0
lanl2dz
