%chk=UCIJITUY_PN_Pd_gaussain.chk
%nprocshared=32
%mem=64GB
#p opt rwb97xd/gen pseudo=read

This Gaussian input file was generated using the DART python program. This file was generated on the 2023-08-13 at 16:51:13

0 1
Pd  0.0  0.0  0.0 
P  1.4156936515362348  -1.5773114736791842  1.740497860769381e-16 
N  2.942601855819974  -0.9923172823621713  -0.3894844307753764 
N  1.4156936515362348  1.5773114736791842  -3.041872472124764e-16 
C  3.5259292832505995  0.18425936782294186  0.3099898208210309 
C  2.527088574219999  1.1630363061526292  0.9156879989404931 
C  3.2721131243462747  2.369482868391386  1.4609056822298812 
C  4.265992206396756  1.9920602857664134  2.5409652242863534 
C  5.239183449407884  0.9475710187498423  2.021224446962071 
C  4.500532537126004  -0.2266081246250416  1.422813527067904 
C  3.970095658643508  -1.8713731651966443  -0.9881107416015495 
C  4.7829561917717385  -1.234427598791451  -2.077492506236579 
C  6.158911291843225  -1.306990486280646  -2.0370438975272753 
C  6.939733043845849  -0.8295072671652423  -3.08074977902014 
C  6.322004020017847  -0.2519911391203405  -4.179905047837295 
C  4.961020848031529  -0.1590764628210871  -4.224634551504758 
C  4.1885493111749135  -0.656243251426785  -3.168304447297778 
C  1.8494750078630307  2.132768800668868  -1.3031309039374366 
C  0.6862629848639072  2.70328802912598  -2.066078824513283 
C  0.15247891425262527  3.93460380119081  -1.7228884758348126 
C  -0.9904922621409096  4.412511885661717  -2.382296818768803 
C  -1.5654515894630627  3.6636307580523857  -3.3765702814720497 
C  -1.0260418562864175  2.4633795891541768  -3.7087518904042427 
C  0.0960901917318504  1.9766850980468744  -3.0711616543308136 
C  1.4672035590459576  -2.4910458432379134  1.572464117655947 
C  2.5492881777725573  -3.2911508421930433  1.9151646845686976 
C  2.5559013997931164  -3.981389940917458  3.1082685492371036 
C  1.5105344619337344  -3.8885767537677314  3.963261676415103 
C  0.4525928047343226  -3.083811489467003  3.651790892332277 
C  0.42425976466186954  -2.3706350536321117  2.4753537030994224 
C  1.113945265786871  -2.8521513442785076  -1.256673428551745 
C  0.8141949252137871  -2.4336581132235873  -2.5367783456923556 
C  0.607853640693974  -3.35167060737128  -3.5466614007494504 
C  0.6294862451931617  -4.685102237773394  -3.2536145316896845 
C  0.8903525450574208  -5.112532809509112  -1.9966309319793047 
C  1.1313823175357585  -4.20078396091581  -0.9976481313927061 
H  1.0944565691181811  2.192989965977731  0.4046070204538325 
H  4.04511727624187  0.6820966486032338  -0.3546551970636995 
H  2.113901395532233  0.712991786192217  1.6807243480257252 
H  3.743240933183986  2.8074588335243886  0.7353625396769417 
H  2.631864077621315  3.0004438527038744  1.8261148338720852 
H  3.792425911330322  1.6386783765485458  3.3106793922828923 
H  4.755269259960846  2.7796285947082047  2.8235194024649775 
H  5.812863426671121  1.3456402653618824  1.3483269743936297 
H  5.802835802480342  0.6378233892214901  2.749176005018981 
H  4.005571607131573  -0.6790229690663117  2.1231925860839853 
H  5.1431367875371645  -0.8556988156890316  1.061539476283507 
H  3.533719062860532  -2.659749672152127  -1.347753105532074 
H  4.572743636820688  -2.1662923379551726  -0.2858348158156741 
H  6.572361329084093  -1.685215301071629  -1.2941729086053397 
H  7.866155482985994  -0.8970220363005991  -3.043719248288537 
H  6.834266294162689  0.07191142770008814  -4.885367215281508 
H  4.545060262888791  0.23588828282097146  -4.957049830774382 
H  3.260559016458716  -0.5956839728099927  -3.2078275631409907 
H  2.266100936550608  1.43215112087586  -1.8286494310196766 
H  2.5078307073885897  2.8279361936013183  -1.1528599529664803 
H  0.552182946148525  4.444897733892978  -1.0557629335764438 
H  -1.356399726247128  5.234504812636207  -2.1449664883951542 
H  -2.321015248693081  3.9766769656275116  -3.820396743925326 
H  -1.422654821677717  1.9573701431325246  -4.381344468582441 
H  0.4527949676561135  1.155329572129041  -3.3224072371318876 
H  3.275032729986996  -3.361062826503144  1.33618325189498 
H  3.2835405307105843  -4.516609448343489  3.3274952219489644 
H  1.5136341754307658  -4.3707963487509724  4.759272175083571 
H  -0.26133550053320564  -3.014945836225647  4.243843725060482 
H  -0.2917021755752467  -1.8093857634490769  2.2864577677250724 
H  0.7485760366065606  -1.5238382463506195  -2.7208051679254406 
H  0.4569926461310212  -3.066287854813205  -4.417495767814666 
H  0.46087638126287933  -5.305707480513866  -3.9257080121434504 
H  0.9081422824268854  -6.023126889351666  -1.8084300366572659 
H  1.3090340798123705  -4.5010940346738515  -0.13534194391666127 
Br  -1.654629867976521  1.654629867976521  0.0 
C  -1.352040782177733  -1.3199206589279684  -0.4819701001757076 
C  -1.6380700204479186  -1.599217458033982  -1.8139382277462257 
H  -1.1579680913617836  -1.159339363685303  -2.503515938957912 
C  -2.63068216563725  -2.52632649780156  -2.142289956238523 
H  -2.8368222554424674  -2.694399528648736  -3.0538898079700485 
C  -3.3101544432602585  -3.1961573187854975  -1.1619874135498987 
H  -3.9960123560788676  -3.811990145619169  -1.3868663427944008 
C  -2.9974710358883443  -2.9701089012107795  0.12423560353005347 
H  -3.438659168087169  -3.468581175155742  0.8017084178296768 
C  -2.0389854250767776  -2.015940632791841  0.4912562833419403 
H  -1.8619130127668426  -1.8492165108145995  1.4101568590026907 

-Pd 0
lanl2dz
F 1 1.0
1.472 1.0
****
-C 0
6-31g(d)
****
-N 0
6-31+g(d)
****
-H 0
6-31g(d,p)
****
-Br 0
6-31+g(d)
****
-P 0
6-31+g(d)
****

-Pd 0
lanl2dz


