%chk=ORORIBIJ_PN_Pd_gaussain.chk
%nprocshared=32
%mem=64GB
#p opt rwb97xd/gen pseudo=read

This Gaussian input file was generated using the DART python program. This file was generated on the 2023-10-04 at 09:55:46

0 1
Pd  0.0  0.0  0.0 
P  1.5500603851140768  -1.445480128711564  -2.545558279652749e-15 
N  2.9459921816736765  -0.46314373625926697  -0.18395081249545883 
C  4.3330429650060225  -0.6682204987217348  -0.2986806950677999 
H  4.759604703764904  -1.5149516060465782  -0.3535942172226269 
C  4.968972035035338  0.5332372076169896  -0.3194346771184813 
H  5.907601789677621  0.6651142125052645  -0.3772274040130782 
C  3.9776325652721676  1.5610865916997152  -0.23836366299830195 
C  3.9202222493229  2.9571923630040864  -0.22982077395351702 
H  4.708460875355087  3.4816841702181867  -0.30572138393916354 
C  2.6763610889735423  3.5509099506439563  -0.10760952282878278 
H  2.6161095538198955  4.499689510292723  -0.1090058409595141 
C  1.5253763026601155  2.8054969189474113  0.015988631898662068 
H  0.6930931636944927  3.251435989430907  0.11455623311663005 
N  1.5500603851140764  1.445480128711564  -1.770202612857721e-16 
C  2.7482239394687284  0.8942529902864789  -0.1359039693310881 
C  1.8160005034835809  -2.440505232434038  1.488886962265352 
C  0.939524826860836  -2.3119998062366043  2.5726347759778148 
H  0.15334660399545053  -1.7867185001028492  2.487411473303872 
C  1.2172347635394338  -2.944729351827266  3.7612824837561303 
H  0.627637999293138  -2.842932898816765  4.499211760682353 
C  2.3403286176959823  -3.724513845305362  3.886556816669583 
H  2.515148141931363  -4.171751242180707  4.706631267425356 
C  3.2238205810126397  -3.8626790687719867  2.8216440776250535 
H  4.0073165410066895  -4.3911615984356205  2.9135170144093143 
C  2.9502116197619457  -3.2259710769296124  1.6301233982210477 
H  3.544954327364736  -3.3257557554838346  0.8961541756516336 
C  1.5931737957153125  -2.5734537601812137  -1.4105414033397037 
C  1.2405117825841743  -3.905557662374827  -1.2726187139269547 
H  1.0365185261411822  -4.257708567039094  -0.4141921290229621 
C  1.1858179133590543  -4.725269273392368  -2.3966976192677882 
H  0.9349535573086409  -5.636096533379362  -2.3056754388500615 
C  1.4945233372840978  -4.219049315424333  -3.6450140716924646 
H  1.4504656849150936  -4.778709862761699  -4.4114987584421845 
C  1.8693566761888556  -2.8875044108841297  -3.7721813050449873 
H  2.103003336850903  -2.54259993928521  -4.625258607188593 
C  1.905468797881853  -2.064200156220474  -2.670278097444804 
H  2.142266354621735  -1.1500921973806872  -2.766752999402681 
Br  -1.654629867976521  1.654629867976521  0.0 
C  -1.352040782177733  -1.3199206589279684  -0.4819701001757076 
C  -1.6380700204479186  -1.599217458033982  -1.8139382277462257 
H  -1.1579680913617836  -1.159339363685303  -2.503515938957912 
C  -2.63068216563725  -2.52632649780156  -2.142289956238523 
H  -2.8368222554424674  -2.694399528648736  -3.0538898079700485 
C  -3.3101544432602585  -3.1961573187854975  -1.1619874135498987 
H  -3.9960123560788676  -3.811990145619169  -1.3868663427944008 
C  -2.9974710358883443  -2.9701089012107795  0.12423560353005347 
H  -3.438659168087169  -3.468581175155742  0.8017084178296768 
C  -2.0389854250767776  -2.015940632791841  0.4912562833419403 
H  -1.8619130127668426  -1.8492165108145995  1.4101568590026907 

-Pd 0
lanl2dz
F 1 1.0
1.472 1.0
****
-P 0
6-31+g(d)
****
-N 0
6-31+g(d)
****
-C 0
6-31g(d)
****
-H 0
6-31g(d,p)
****
-Br 0
6-31+g(d)
****

-Pd 0
lanl2dz


