%chk=QEHOZOLU_PN_Ni_gaussain.chk
%nprocshared=32
%mem=64GB
#p opt rwb97xd/gen pseudo=read

This Gaussian input file was generated using the DART python program. This file was generated on the 2023-10-04 at 09:55:46

0 1
Ni  0.0  0.0  0.0 
P  1.418858860140785  -1.4376854784687787  -4.075471189959835e-15 
N  1.4188588601407814  1.4376854784687787  -6.504338947622643e-17 
C  2.924543239807919  -0.4442337942233517  -0.3067829198250192 
H  3.684731641338951  -0.8191729502994869  0.20587008506096427 
H  3.1551563142082046  -0.47047133057252316  -1.268760825809343 
C  2.67918598447549  0.9702231996428232  0.11670315994480172 
C  3.689855449311361  1.7746093343846805  0.6060341717184797 
H  4.572658820194569  1.4328017086142777  0.689062211093411 
C  3.4192951180644378  3.062667190385496  0.9705847535999842 
H  4.110029533594725  3.6264908827993194  1.295647918346293 
C  2.133062246253677  3.5302750712941986  0.8574706113119256 
H  1.9253235684860306  4.424701289168753  1.1022852198179707 
C  1.148888335553277  2.693912951061437  0.3859140745780269 
H  0.255849706079307  3.0138443803542216  0.33248555393656115 
C  1.6014266839174927  -2.9695359095836578  -0.962729575952982 
C  1.8474909896500487  -2.950534326546807  -2.3266255973880896 
C  2.103611758577428  -4.207361544363933  -2.947364637789214 
H  2.3159730946268855  -4.2365408507061515  -3.87374689745997 
C  2.0499163212164335  -5.34809914278965  -2.2478575387941078 
H  2.2343423020249324  -6.16872914682681  -2.689363217213758 
C  1.7402988147716214  -5.368685432658503  -0.9243855125040232 
H  1.6947291241012734  -6.194789711227794  -0.4555342096139469 
C  1.4979926675092612  -4.206096684958149  -0.2830671869281769 
H  1.2547017092704513  -4.218733496188483  0.6346507330457064 
C  1.7744423997544787  -1.7586505552611442  -3.1611238833420825 
H  1.6004541572771513  -0.976004304150362  -2.597111722921844 
H  1.049534674343201  -1.859844079282093  -3.812196882578944 
H  2.6237389737360477  -1.637884137570871  -3.6349920630940478 
C  1.4643319464076392  -1.8577175293198178  1.766993767584743 
C  2.563837518574335  -2.5112782761395933  2.4021490454426826 
C  2.454766667464683  -2.7128998577310868  3.7496945464461864 
H  3.169229716343213  -3.1498962240497748  4.199357117282881 
C  1.3632434443066652  -2.3154130300776283  4.488880128792543 
H  1.3301627759044892  -2.4860908095188914  5.422673695370872 
C  0.3122529174216371  -1.663045308454038  3.862647130475165 
H  -0.4368986999740301  -1.3665586941119445  4.364792419877974 
C  0.36623607109116607  -1.454063372210236  2.5007301031039075 
H  -0.36065764227238084  -1.0259391306998107  2.062721457865378 
C  3.7773577044279545  -2.9995111584439984  1.707205464162465 
H  4.386880803741626  -3.4065734879761167  2.3581191230136014 
H  4.225019573757624  -2.247648288443205  1.26436633370713 
H  3.5230473419434567  -3.6686808999542526  1.0353370718562758 
Br  -1.5839191898578664  1.5839191898578664  0.0 
C  -1.2937473829822488  -1.2398794889499034  -0.4598005675376139 
C  -1.601562203225019  -1.4938654694550033  -1.7919791134336869 
H  -1.1309417375171225  -1.0428217585005106  -2.480879663633267 
C  -2.60218398542082  -2.411889969420291  -2.121542410022959 
H  -2.8231586547736818  -2.5626138747145775  -3.03270050271447 
C  -3.2683208079706407  -3.09759503004543  -1.143064365570095 
H  -3.9596020908062854  -3.707191723557817  -1.3683280760515548 
C  -2.9347449854640226  -2.896087320001541  0.14198826503765638 
H  -3.3668350933519986  -3.405606940434718  0.8171022443470677 
C  -1.9675509241539992  -1.9516175659140573  0.5112421903797603 
H  -1.7755298364628027  -1.8022912010877177  1.4301324877763764 

-Ni 0
lanl2dz
F 1 1.0
3.130 1.0
****
-P 0
6-31+g(d)
****
-N 0
6-31+g(d)
****
-C 0
6-31g(d)
****
-H 0
6-31g(d,p)
****
-Br 0
6-31+g(d)
****

-Ni 0
lanl2dz


