%chk=OJUFEHUL_PN_Pd_gaussain.chk
%nprocshared=32
%mem=64GB
#p opt rwb97xd/gen pseudo=read

This Gaussian input file was generated using the DART python program. This file was generated on the 2023-10-04 at 16:41:16

0 1
Pd  0.0  0.0  0.0 
P  1.3689013304471584  -1.6180881148750832  -1.0808921175430185e-15 
N  1.3689013304471584  1.6180881148750828  -3.0918094552453014e-16 
N  2.7289452656250823  1.495665152751483  -0.16136100126940214 
C  1.1646296925356  2.9338796749437153  0.2211291893827742 
C  2.372082494995017  3.640332379522322  0.15984888237883854 
H  2.4928122175532255  4.576400487356445  0.2656094212714963 
C  3.3495694194014822  2.6999662919081953  -0.08586659104463548 
C  -0.1619421124400291  3.5317613175480096  0.5373046591468211 
H  -0.8051579001005644  3.285322497971868  -0.15989788582139547 
H  -0.07912812696986404  4.508333350599492  0.5755628356877951 
H  -0.4740028918945731  3.1961348334229935  1.4030627218179714 
C  4.823308842149342  2.864405096293419  -0.25457830803890497 
H  5.290827647307918  2.301639174197577  0.39726052461126377 
H  5.065235990629547  3.8030340226403947  -0.10907451615371663 
H  5.080037493884669  2.597270846294081  -1.1624468568142554 
C  3.38515608180795  0.22703299599253296  -0.4685954159461138 
H  4.365797569877025  0.35225824679146295  -0.41819096733263744 
H  3.1597384066243546  -0.03565855095873744  -1.3963232655201092 
C  2.9795612731366248  -0.8991740895472323  0.47705487441439215 
H  2.921732687250402  -0.5481382159268078  1.400318921199462 
H  3.6722592320519842  -1.6068063745099057  0.4621114145408929 
C  1.1985831315582116  -2.957749129051276  1.2494285766796218 
C  0.9766948688036801  -4.291109512930347  0.8821868775853654 
H  0.9001433314814675  -4.518758549230473  -0.03637388709231914 
C  0.866518747801315  -5.286029953418398  1.8505289243126304 
H  0.7031259575815938  -6.184458871865913  1.5895897655007636 
C  0.9961415370714137  -4.967698324711167  3.197703804076369 
H  0.9162577272588959  -5.6450212621487275  3.8585846143219213 
C  1.2433243581917743  -3.654088836785291  3.57081299208184 
H  1.3533401200313147  -3.4372831716456766  4.489927813913299 
C  1.331293451925082  -2.6497449014579755  2.6076570503366963 
H  1.4821093436937496  -1.7511153140870477  2.8746823702813966 
C  1.7310192202171126  -2.5827143120834464  -1.51014068999148 
C  3.0245988629922866  -2.8222638035089624  -1.9908016504984003 
H  3.775408209931717  -2.4807826969360622  -1.5203198140773428 
C  3.2123633982993303  -3.5614834195509126  -3.1591959711537867 
H  4.090944369245214  -3.695731176519803  -3.4973544506285053 
C  2.123365085254341  -4.102426333569889  -3.832052090957891 
H  2.259169650153116  -4.607969781717119  -4.624930033763769 
C  0.8319668356943434  -3.9035839206986727  -3.345526381588916 
H  0.08601146653502356  -4.28713748882306  -3.7914113304282377 
C  0.6479534692696937  -3.1362292206761366  -2.1973299762076786 
H  -0.23209530528368272  -2.985361525180551  -1.8755505442003493 
Br  -1.654629867976521  1.654629867976521  0.0 
C  -1.352040782177733  -1.3199206589279684  -0.4819701001757076 
C  -1.6380700204479186  -1.599217458033982  -1.8139382277462257 
H  -1.1579680913617836  -1.159339363685303  -2.503515938957912 
C  -2.63068216563725  -2.52632649780156  -2.142289956238523 
H  -2.8368222554424674  -2.694399528648736  -3.0538898079700485 
C  -3.3101544432602585  -3.1961573187854975  -1.1619874135498987 
H  -3.9960123560788676  -3.811990145619169  -1.3868663427944008 
C  -2.9974710358883443  -2.9701089012107795  0.12423560353005347 
H  -3.438659168087169  -3.468581175155742  0.8017084178296768 
C  -2.0389854250767776  -2.015940632791841  0.4912562833419403 
H  -1.8619130127668426  -1.8492165108145995  1.4101568590026907 

-Pd 0
lanl2dz
F 1 1.0
1.472 1.0
****
-H 0
6-31g(d,p)
****
-P 0
6-31+g(d)
****
-N 0
6-31+g(d)
****
-C 0
6-31g(d)
****
-Br 0
6-31+g(d)
****

-Pd 0
lanl2dz


